data_image0
_chemical_formula_structural       I240Pb64C81N81H487OH2OH2OH2OH2OH2OH2OH2OH2OH2OH2OH2OH2OH2OH2OH2OH2OH2OH2OH2OH2OH2OH2OH2OH2OH2OH2OH2OH2OH2OH2OH2OH2OH2OH2OH2OH2OH2OH2OH2OH2OH2OH2OH2OH2OH2OH2OH2OH2OH2OH2OH2OH2OH2OH2OH2OH2OH2OH2OH2OH2OH2OH2OH2OH2OH2OH2OH2OH2OH2OH2OH2OH2OH2OH2OH2OH2OH2OH2OH2OH2OH2OH2OH2OH2OH2OH2OH2OH2OH2OH2OH2OH2OH2OH2OH2OH2OH2OH2OH2OH2OH2OH2OH2OH2OH2OH2OH2OH2OH2OH2OH2OH2OH2OH2OH2OH2OH2OH2OH2OH2OH2OH2OH2OH2OH2OH2OH2OH2OH2OH2OH2OH2OH2OH2OH2OH2OH2OH2OH2OH2OH2OH2OH2OH2OH2OH2OH2OH2OH2OH2OH2OH2OH2OH2OH2OH2OH2OH2OH2OH2OH2OH2OH2OH2OH2OH2OH2OH2OH2OH2OH2OH2OH2OH2OH2OH2OH2OH2OH2OH2OH2OH2OH2OH2OH2OH2OH2OH2OH2OH2OH2OH2OH2OH2OH2OH2OH2OH2OH2OH2OH2OH2OH2OH2OH2OH2OH2OH2OH2OH2OH2OH2OH2OH2OH2OH2OH2OH2OH2OH2OH2OH2OH2OH2OH2OH2OH2OH2OH2OH2OH2OH2OH2OH2OH2OH2OH2OH2OH2OH2OH2OH2OH2OH2OH2OH2OH2OH2OH2OH2OH2OH2OH2OH2OH2OH2OH2OH2OH2OH2OH2OH2OH2OH2OH2OH2OH2OH2OH2OH2OH2OH2OH2OH2OH2OH2OH2OH2OH2OH2OH2OH2OH2OH2OH2OH2OH2OH2OH2OH2OH2OH2OH2OH2OH2OH2OH2OH2OH2OH2OH2OH2OH2OH2OH2OH2OH2OH2OH2OH2OH2OH2OH2OH2OH2OH2OH2OH2OH2OH2OH2OH2OH2OH2OH2OH2OH2OH2OH2OH2OH2OH2OH2OH2OH2OH2OH2OH2OH2OH2OH2OH2OH2OH2OH2OH2OH2OH2OH2OH2OH2OH2OH2OH2OH2OH2OH2OH2OH2OH2OH2OH2OH2OH2OH2OH2OH2OH2OH2OH2OH2OH2OH2OH2OH2OH2OH2OH2OH2OH2OH2OH2OH2OH2OH2OH2OH2OH2OH2OH2OH2OH2OH2OH2OH2OH2OH2OH2OH2OH2OH2OH2OH2OH2OH2OH2OH2OH2OH2OH2OH2OH2OH2OH2OH2OH2OH2OH2OH2OH2OH2OH2OH2OH2OH2OH2OH2OH2OH2OH2OH2OH2OH2OH2OH2OH2OH2OH2OH2OH2OH2OH2OH2OH2OH2OH2OH2OH2OH2OH2OH2OH2OH2OH2OH2OH2OH2OH2OH2OH2OH2OH2OH2OH2OH2OH2OH2OH2OH2OH2OH2OH2OH2OH2OH2OH2OH2OH2OH2OH2OH2OH2OH2OH2OH2OH2OH2OH2OH2OH2OH2OH2OH2OH2OH2OH2OH2OH2OH2OH2OH2OH2OH2OH2OH2OH2OH2OH2OH2OH2OH2OH2OH2OH2OH2OH2OH2OH2OH2OH2OH2OH2OH2OH2OH2OH2OH2OH2OH2OH2OH2OH2OH2OH2OH2OH2OH2OH2OH2OH2OH2OH2OH2OH2OH2OH2OH2OH2OH2OH2OH2OH2OH2OH2OH2OH2OH2OH2OH2OH2OH2OH2OH2OH2OH2OH2OH2OH2OH2OH2OH2OH2OH2OH2OH2OH2OH2OH2OH2OH2OH2OH2OH2OH2OH2OH2OH2OH2OH2OH2OH2OH2OH2OH2OH2OH2OH2OH2OH2OH2OH2OH2OH2OH2OH2OH2OH2OH2OH2OH2OH2OH2OH2OH2OH2OH2OH2OH2OH2OH2OH2OH2OH2OH2OH2OH2OH2OH2OH2OH2OH2OH2OH2OH2OH2OH2OH2OH2OH2OH2OH2OH2OH2OH2OH2OH2OH2OH2OH2OH2OH2OH2OH2OH2OH2OH2OH2OH2OH2OH2OH2OH2OH2OH2OH2OH2OH2OH2OH2OH2OH2OH2OH2OH2OH2OH2OH2OH2OH2OH2OH2OH2OH2OH2OH2OH2OH2OH2OH2OH2OH2OH2OH2OH2OH2OH2OH2OH2OH2OH2OH2OH2OH2OH2OH2OH2OH2OH2OH2OH2OH2OH2OH2OH2OH2OH2OH2OH2OH2OH2OH2OH2OH2OH2OH2OH2OH2OH2OH2OH2OH2OH2OH2OH2OH2OH2OH2OH2OH2OH2OH2OH2OH2OH2OH2OH2OH2OH2OH2OH2OH2OH2OH2OH2OH2OH2OH2OH2OH2OH2OH2OH2OH2OH2OH2OH2OH2OH2OH2OH2OH2OH2OH2OH2OH2OH2OH2OH2OH2OH2OH2OH2OH2OH2OH2OH2OH2OH2OH2OH2OH2OH2OH2OH2OH2OH2OH2OH2OH2OH2OH2OH2OH2OH2OH2OH2OH2OH2OH2OH2OH2OH2OH2OH2OH2OH2OH2OH2OH2OH2OH2OH2OH2OH2OH2OH2OH2OH2OH2OH2OH2OH2OH2OH2OH2OH2OH2OH2OH2OH2OH2OH2OH2OH2OH2OH2OH2OH2OH2OH2OH2OH2OH2OH2OH2OH2OH2OH2OH2OH2OH2OH2OH2OH2OH2OH2OH2OH2OH2OH2OH2OH2OH2OH2OH2OH2OH2OH2OH2OH2OH2OH2OH2OH2OH2OH2OH2OH2OH2OH2OH
_chemical_formula_sum              "I240 Pb64 C81 N81 H2268 O891"
_cell_length_a       45.64
_cell_length_b       44.94
_cell_length_c       44.24
_cell_angle_alpha    90
_cell_angle_beta     90
_cell_angle_gamma    90

_space_group_name_H-M_alt    "P 1"
_space_group_IT_number       1

loop_
  _space_group_symop_operation_xyz
  'x, y, z'

loop_
  _atom_site_type_symbol
  _atom_site_label
  _atom_site_symmetry_multiplicity
  _atom_site_fract_x
  _atom_site_fract_y
  _atom_site_fract_z
  _atom_site_occupancy
  I   I1        1.0  0.27443  0.28367  0.20963  1.0000
  I   I2        1.0  0.41239  0.28367  0.20963  1.0000
  I   I3        1.0  0.55035  0.28367  0.20963  1.0000
  I   I4        1.0  0.68830  0.28367  0.20963  1.0000
  I   I5        1.0  0.27443  0.42270  0.20963  1.0000
  I   I6        1.0  0.41239  0.42270  0.20963  1.0000
  I   I7        1.0  0.55035  0.42270  0.20963  1.0000
  I   I8        1.0  0.68830  0.42270  0.20963  1.0000
  I   I9        1.0  0.27443  0.56172  0.20963  1.0000
  I   I10       1.0  0.41239  0.56172  0.20963  1.0000
  I   I11       1.0  0.55035  0.56172  0.20963  1.0000
  I   I12       1.0  0.68830  0.56172  0.20963  1.0000
  I   I13       1.0  0.27443  0.70076  0.20963  1.0000
  I   I14       1.0  0.41239  0.70076  0.20963  1.0000
  I   I15       1.0  0.55035  0.70076  0.20963  1.0000
  I   I16       1.0  0.68830  0.70076  0.20963  1.0000
  I   I17       1.0  0.27656  0.21416  0.28756  1.0000
  I   I18       1.0  0.41452  0.21416  0.28756  1.0000
  I   I19       1.0  0.55248  0.21416  0.28756  1.0000
  I   I20       1.0  0.69043  0.21416  0.28756  1.0000
  I   I21       1.0  0.21033  0.28367  0.27540  1.0000
  I   I22       1.0  0.27772  0.28367  0.35333  1.0000
  I   I23       1.0  0.27656  0.35318  0.28756  1.0000
  I   I24       1.0  0.34828  0.28367  0.27540  1.0000
  I   I25       1.0  0.41568  0.28367  0.35333  1.0000
  I   I26       1.0  0.41452  0.35318  0.28756  1.0000
  I   I27       1.0  0.48624  0.28367  0.27540  1.0000
  I   I28       1.0  0.55363  0.28367  0.35333  1.0000
  I   I29       1.0  0.55248  0.35318  0.28756  1.0000
  I   I30       1.0  0.62419  0.28367  0.27540  1.0000
  I   I31       1.0  0.69158  0.28367  0.35333  1.0000
  I   I32       1.0  0.69043  0.35318  0.28756  1.0000
  I   I33       1.0  0.76214  0.28367  0.27540  1.0000
  I   I34       1.0  0.21033  0.42270  0.27540  1.0000
  I   I35       1.0  0.27772  0.42270  0.35333  1.0000
  I   I36       1.0  0.27656  0.49221  0.28756  1.0000
  I   I37       1.0  0.34828  0.42270  0.27540  1.0000
  I   I38       1.0  0.41568  0.42270  0.35333  1.0000
  I   I39       1.0  0.41452  0.49221  0.28756  1.0000
  I   I40       1.0  0.48624  0.42270  0.27540  1.0000
  I   I41       1.0  0.55363  0.42270  0.35333  1.0000
  I   I42       1.0  0.55248  0.49221  0.28756  1.0000
  I   I43       1.0  0.62419  0.42270  0.27540  1.0000
  I   I44       1.0  0.69158  0.42270  0.35333  1.0000
  I   I45       1.0  0.69043  0.49221  0.28756  1.0000
  I   I46       1.0  0.76214  0.42270  0.27540  1.0000
  I   I47       1.0  0.21033  0.56172  0.27540  1.0000
  I   I48       1.0  0.27772  0.56172  0.35333  1.0000
  I   I49       1.0  0.27656  0.63124  0.28756  1.0000
  I   I50       1.0  0.34828  0.56172  0.27540  1.0000
  I   I51       1.0  0.41568  0.56172  0.35333  1.0000
  I   I52       1.0  0.41452  0.63124  0.28756  1.0000
  I   I53       1.0  0.48624  0.56172  0.27540  1.0000
  I   I54       1.0  0.55363  0.56172  0.35333  1.0000
  I   I55       1.0  0.55248  0.63124  0.28756  1.0000
  I   I56       1.0  0.62419  0.56172  0.27540  1.0000
  I   I57       1.0  0.69158  0.56172  0.35333  1.0000
  I   I58       1.0  0.69043  0.63124  0.28756  1.0000
  I   I59       1.0  0.76214  0.56172  0.27540  1.0000
  I   I60       1.0  0.21033  0.70076  0.27540  1.0000
  I   I61       1.0  0.27772  0.70076  0.35333  1.0000
  I   I62       1.0  0.27656  0.77027  0.28756  1.0000
  I   I63       1.0  0.34828  0.70076  0.27540  1.0000
  I   I64       1.0  0.41568  0.70076  0.35333  1.0000
  I   I65       1.0  0.41452  0.77027  0.28756  1.0000
  I   I66       1.0  0.48624  0.70076  0.27540  1.0000
  I   I67       1.0  0.55364  0.70076  0.35333  1.0000
  I   I68       1.0  0.55248  0.77027  0.28756  1.0000
  I   I69       1.0  0.62420  0.70076  0.27540  1.0000
  I   I70       1.0  0.69158  0.70076  0.35333  1.0000
  I   I71       1.0  0.69043  0.77027  0.28756  1.0000
  I   I72       1.0  0.76215  0.70076  0.27540  1.0000
  I   I73       1.0  0.27985  0.21416  0.43126  1.0000
  I   I74       1.0  0.41781  0.21416  0.43126  1.0000
  I   I75       1.0  0.55577  0.21416  0.43126  1.0000
  I   I76       1.0  0.69372  0.21416  0.43126  1.0000
  I   I77       1.0  0.21362  0.28367  0.41911  1.0000
  I   I78       1.0  0.28101  0.28367  0.49704  1.0000
  I   I79       1.0  0.27985  0.35318  0.43126  1.0000
  I   I80       1.0  0.35157  0.28367  0.41911  1.0000
  I   I81       1.0  0.41897  0.28367  0.49704  1.0000
  I   I82       1.0  0.41781  0.35318  0.43126  1.0000
  I   I83       1.0  0.48953  0.28367  0.41911  1.0000
  I   I84       1.0  0.55692  0.28367  0.49704  1.0000
  I   I85       1.0  0.55577  0.35318  0.43126  1.0000
  I   I86       1.0  0.62748  0.28367  0.41911  1.0000
  I   I87       1.0  0.69487  0.28367  0.49704  1.0000
  I   I88       1.0  0.69372  0.35318  0.43126  1.0000
  I   I89       1.0  0.76543  0.28367  0.41911  1.0000
  I   I90       1.0  0.21362  0.42270  0.41911  1.0000
  I   I91       1.0  0.28101  0.42270  0.49704  1.0000
  I   I92       1.0  0.27985  0.49221  0.43126  1.0000
  I   I93       1.0  0.35157  0.42270  0.41911  1.0000
  I   I94       1.0  0.41897  0.42270  0.49704  1.0000
  I   I95       1.0  0.41781  0.49221  0.43126  1.0000
  I   I96       1.0  0.48953  0.42270  0.41911  1.0000
  I   I97       1.0  0.55692  0.42270  0.49704  1.0000
  I   I98       1.0  0.55577  0.49221  0.43126  1.0000
  I   I99       1.0  0.62748  0.42270  0.41911  1.0000
  I   I100      1.0  0.69487  0.42270  0.49704  1.0000
  I   I101      1.0  0.69372  0.49221  0.43126  1.0000
  I   I102      1.0  0.76543  0.42270  0.41911  1.0000
  I   I103      1.0  0.21362  0.56172  0.41911  1.0000
  I   I104      1.0  0.28101  0.56172  0.49704  1.0000
  I   I105      1.0  0.27985  0.63124  0.43126  1.0000
  I   I106      1.0  0.35157  0.56172  0.41911  1.0000
  I   I107      1.0  0.41897  0.56172  0.49704  1.0000
  I   I108      1.0  0.41781  0.63124  0.43126  1.0000
  I   I109      1.0  0.48953  0.56172  0.41911  1.0000
  I   I110      1.0  0.55692  0.56172  0.49704  1.0000
  I   I111      1.0  0.55577  0.63124  0.43126  1.0000
  I   I112      1.0  0.62748  0.56172  0.41911  1.0000
  I   I113      1.0  0.69487  0.56172  0.49704  1.0000
  I   I114      1.0  0.69372  0.63124  0.43126  1.0000
  I   I115      1.0  0.76543  0.56172  0.41911  1.0000
  I   I116      1.0  0.21362  0.70076  0.41911  1.0000
  I   I117      1.0  0.28101  0.70075  0.49704  1.0000
  I   I118      1.0  0.27985  0.77027  0.43126  1.0000
  I   I119      1.0  0.35157  0.70076  0.41911  1.0000
  I   I120      1.0  0.41897  0.70075  0.49704  1.0000
  I   I121      1.0  0.41781  0.77027  0.43126  1.0000
  I   I122      1.0  0.48953  0.70076  0.41911  1.0000
  I   I123      1.0  0.55692  0.70075  0.49704  1.0000
  I   I124      1.0  0.55577  0.77027  0.43126  1.0000
  I   I125      1.0  0.62748  0.70076  0.41911  1.0000
  I   I126      1.0  0.69487  0.70075  0.49704  1.0000
  I   I127      1.0  0.69372  0.77027  0.43126  1.0000
  I   I128      1.0  0.76543  0.70076  0.41911  1.0000
  I   I129      1.0  0.28314  0.21416  0.57497  1.0000
  I   I130      1.0  0.42110  0.21416  0.57497  1.0000
  I   I131      1.0  0.55905  0.21416  0.57497  1.0000
  I   I132      1.0  0.69700  0.21416  0.57497  1.0000
  I   I133      1.0  0.21691  0.28367  0.56282  1.0000
  I   I134      1.0  0.28430  0.28367  0.64075  1.0000
  I   I135      1.0  0.28314  0.35318  0.57497  1.0000
  I   I136      1.0  0.35486  0.28367  0.56282  1.0000
  I   I137      1.0  0.42225  0.28367  0.64075  1.0000
  I   I138      1.0  0.42110  0.35318  0.57497  1.0000
  I   I139      1.0  0.49281  0.28367  0.56282  1.0000
  I   I140      1.0  0.56021  0.28367  0.64075  1.0000
  I   I141      1.0  0.55905  0.35318  0.57497  1.0000
  I   I142      1.0  0.63077  0.28367  0.56282  1.0000
  I   I143      1.0  0.69816  0.28367  0.64075  1.0000
  I   I144      1.0  0.69700  0.35318  0.57497  1.0000
  I   I145      1.0  0.76872  0.28367  0.56282  1.0000
  I   I146      1.0  0.21691  0.42270  0.56282  1.0000
  I   I147      1.0  0.28430  0.42270  0.64075  1.0000
  I   I148      1.0  0.28314  0.49221  0.57497  1.0000
  I   I149      1.0  0.35486  0.42270  0.56282  1.0000
  I   I150      1.0  0.42225  0.42270  0.64075  1.0000
  I   I151      1.0  0.42110  0.49221  0.57497  1.0000
  I   I152      1.0  0.49281  0.42270  0.56282  1.0000
  I   I153      1.0  0.56021  0.42270  0.64075  1.0000
  I   I154      1.0  0.55906  0.49221  0.57497  1.0000
  I   I155      1.0  0.63077  0.42270  0.56282  1.0000
  I   I156      1.0  0.69816  0.42270  0.64075  1.0000
  I   I157      1.0  0.69701  0.49221  0.57497  1.0000
  I   I158      1.0  0.76872  0.42270  0.56282  1.0000
  I   I159      1.0  0.21691  0.56172  0.56282  1.0000
  I   I160      1.0  0.28430  0.56172  0.64075  1.0000
  I   I161      1.0  0.28314  0.63124  0.57497  1.0000
  I   I162      1.0  0.35486  0.56172  0.56282  1.0000
  I   I163      1.0  0.42226  0.56172  0.64075  1.0000
  I   I164      1.0  0.42110  0.63124  0.57497  1.0000
  I   I165      1.0  0.49282  0.56172  0.56282  1.0000
  I   I166      1.0  0.56021  0.56172  0.64075  1.0000
  I   I167      1.0  0.55906  0.63124  0.57497  1.0000
  I   I168      1.0  0.63077  0.56172  0.56282  1.0000
  I   I169      1.0  0.69816  0.56172  0.64075  1.0000
  I   I170      1.0  0.69701  0.63124  0.57497  1.0000
  I   I171      1.0  0.76872  0.56172  0.56282  1.0000
  I   I172      1.0  0.21691  0.70075  0.56282  1.0000
  I   I173      1.0  0.28430  0.70075  0.64075  1.0000
  I   I174      1.0  0.28314  0.77027  0.57497  1.0000
  I   I175      1.0  0.35486  0.70075  0.56282  1.0000
  I   I176      1.0  0.42226  0.70075  0.64075  1.0000
  I   I177      1.0  0.42110  0.77027  0.57497  1.0000
  I   I178      1.0  0.49282  0.70075  0.56282  1.0000
  I   I179      1.0  0.56021  0.70075  0.64075  1.0000
  I   I180      1.0  0.55906  0.77027  0.57497  1.0000
  I   I181      1.0  0.63077  0.70075  0.56282  1.0000
  I   I182      1.0  0.69816  0.70075  0.64075  1.0000
  I   I183      1.0  0.69701  0.77027  0.57497  1.0000
  I   I184      1.0  0.76872  0.70075  0.56282  1.0000
  I   I185      1.0  0.28643  0.21416  0.71869  1.0000
  I   I186      1.0  0.42439  0.21416  0.71869  1.0000
  I   I187      1.0  0.56234  0.21416  0.71869  1.0000
  I   I188      1.0  0.70029  0.21416  0.71869  1.0000
  I   I189      1.0  0.22020  0.28367  0.70653  1.0000
  I   I190      1.0  0.28759  0.28367  0.78446  1.0000
  I   I191      1.0  0.28643  0.35318  0.71869  1.0000
  I   I192      1.0  0.35815  0.28367  0.70653  1.0000
  I   I193      1.0  0.42554  0.28367  0.78446  1.0000
  I   I194      1.0  0.42439  0.35318  0.71869  1.0000
  I   I195      1.0  0.49610  0.28367  0.70653  1.0000
  I   I196      1.0  0.56350  0.28367  0.78446  1.0000
  I   I197      1.0  0.56234  0.35318  0.71869  1.0000
  I   I198      1.0  0.63406  0.28367  0.70653  1.0000
  I   I199      1.0  0.70145  0.28367  0.78446  1.0000
  I   I200      1.0  0.70029  0.35318  0.71869  1.0000
  I   I201      1.0  0.77201  0.28367  0.70653  1.0000
  I   I202      1.0  0.22020  0.42270  0.70653  1.0000
  I   I203      1.0  0.28759  0.42270  0.78446  1.0000
  I   I204      1.0  0.28643  0.49221  0.71869  1.0000
  I   I205      1.0  0.35815  0.42270  0.70653  1.0000
  I   I206      1.0  0.42554  0.42270  0.78446  1.0000
  I   I207      1.0  0.42439  0.49221  0.71869  1.0000
  I   I208      1.0  0.49610  0.42270  0.70653  1.0000
  I   I209      1.0  0.56350  0.42270  0.78446  1.0000
  I   I210      1.0  0.56234  0.49221  0.71869  1.0000
  I   I211      1.0  0.63406  0.42270  0.70653  1.0000
  I   I212      1.0  0.70145  0.42270  0.78446  1.0000
  I   I213      1.0  0.70029  0.49221  0.71869  1.0000
  I   I214      1.0  0.77201  0.42270  0.70653  1.0000
  I   I215      1.0  0.22020  0.56172  0.70653  1.0000
  I   I216      1.0  0.28759  0.56172  0.78446  1.0000
  I   I217      1.0  0.28643  0.63124  0.71869  1.0000
  I   I218      1.0  0.35815  0.56172  0.70653  1.0000
  I   I219      1.0  0.42554  0.56172  0.78446  1.0000
  I   I220      1.0  0.42439  0.63124  0.71869  1.0000
  I   I221      1.0  0.49610  0.56172  0.70653  1.0000
  I   I222      1.0  0.56350  0.56172  0.78446  1.0000
  I   I223      1.0  0.56234  0.63124  0.71869  1.0000
  I   I224      1.0  0.63406  0.56172  0.70653  1.0000
  I   I225      1.0  0.70145  0.56172  0.78446  1.0000
  I   I226      1.0  0.70029  0.63124  0.71869  1.0000
  I   I227      1.0  0.77201  0.56172  0.70653  1.0000
  I   I228      1.0  0.22020  0.70075  0.70653  1.0000
  I   I229      1.0  0.28759  0.70075  0.78446  1.0000
  I   I230      1.0  0.28643  0.77027  0.71869  1.0000
  I   I231      1.0  0.35815  0.70075  0.70653  1.0000
  I   I232      1.0  0.42554  0.70075  0.78446  1.0000
  I   I233      1.0  0.42439  0.77027  0.71869  1.0000
  I   I234      1.0  0.49610  0.70075  0.70653  1.0000
  I   I235      1.0  0.56350  0.70075  0.78446  1.0000
  I   I236      1.0  0.56234  0.77027  0.71869  1.0000
  I   I237      1.0  0.63406  0.70075  0.70653  1.0000
  I   I238      1.0  0.70145  0.70075  0.78446  1.0000
  I   I239      1.0  0.70029  0.77027  0.71869  1.0000
  I   I240      1.0  0.77201  0.70075  0.70653  1.0000
  Pb  Pb1       1.0  0.28072  0.28367  0.28175  1.0000
  Pb  Pb2       1.0  0.41868  0.28367  0.28175  1.0000
  Pb  Pb3       1.0  0.55663  0.28367  0.28175  1.0000
  Pb  Pb4       1.0  0.69459  0.28367  0.28175  1.0000
  Pb  Pb5       1.0  0.28072  0.42270  0.28175  1.0000
  Pb  Pb6       1.0  0.41868  0.42270  0.28175  1.0000
  Pb  Pb7       1.0  0.55663  0.42270  0.28175  1.0000
  Pb  Pb8       1.0  0.69459  0.42270  0.28175  1.0000
  Pb  Pb9       1.0  0.28072  0.56172  0.28175  1.0000
  Pb  Pb10      1.0  0.41868  0.56172  0.28175  1.0000
  Pb  Pb11      1.0  0.55663  0.56172  0.28175  1.0000
  Pb  Pb12      1.0  0.69459  0.56172  0.28175  1.0000
  Pb  Pb13      1.0  0.28072  0.70076  0.28175  1.0000
  Pb  Pb14      1.0  0.41868  0.70076  0.28175  1.0000
  Pb  Pb15      1.0  0.55663  0.70076  0.28175  1.0000
  Pb  Pb16      1.0  0.69459  0.70076  0.28175  1.0000
  Pb  Pb17      1.0  0.28401  0.28367  0.42545  1.0000
  Pb  Pb18      1.0  0.42197  0.28367  0.42545  1.0000
  Pb  Pb19      1.0  0.55992  0.28367  0.42545  1.0000
  Pb  Pb20      1.0  0.69788  0.28367  0.42545  1.0000
  Pb  Pb21      1.0  0.28401  0.42270  0.42545  1.0000
  Pb  Pb22      1.0  0.42197  0.42270  0.42545  1.0000
  Pb  Pb23      1.0  0.55992  0.42270  0.42545  1.0000
  Pb  Pb24      1.0  0.69788  0.42270  0.42545  1.0000
  Pb  Pb25      1.0  0.28401  0.56172  0.42545  1.0000
  Pb  Pb26      1.0  0.42197  0.56172  0.42545  1.0000
  Pb  Pb27      1.0  0.55992  0.56172  0.42545  1.0000
  Pb  Pb28      1.0  0.69788  0.56172  0.42545  1.0000
  Pb  Pb29      1.0  0.28401  0.70076  0.42545  1.0000
  Pb  Pb30      1.0  0.42197  0.70076  0.42545  1.0000
  Pb  Pb31      1.0  0.55992  0.70076  0.42545  1.0000
  Pb  Pb32      1.0  0.69788  0.70076  0.42545  1.0000
  Pb  Pb33      1.0  0.28730  0.28367  0.56916  1.0000
  Pb  Pb34      1.0  0.42526  0.28367  0.56916  1.0000
  Pb  Pb35      1.0  0.56321  0.28367  0.56916  1.0000
  Pb  Pb36      1.0  0.70117  0.28367  0.56916  1.0000
  Pb  Pb37      1.0  0.28730  0.42270  0.56916  1.0000
  Pb  Pb38      1.0  0.42526  0.42270  0.56916  1.0000
  Pb  Pb39      1.0  0.56321  0.42270  0.56916  1.0000
  Pb  Pb40      1.0  0.70117  0.42270  0.56916  1.0000
  Pb  Pb41      1.0  0.28730  0.56172  0.56916  1.0000
  Pb  Pb42      1.0  0.42526  0.56172  0.56916  1.0000
  Pb  Pb43      1.0  0.56321  0.56172  0.56916  1.0000
  Pb  Pb44      1.0  0.70117  0.56172  0.56916  1.0000
  Pb  Pb45      1.0  0.28730  0.70075  0.56916  1.0000
  Pb  Pb46      1.0  0.42526  0.70075  0.56916  1.0000
  Pb  Pb47      1.0  0.56321  0.70075  0.56916  1.0000
  Pb  Pb48      1.0  0.70117  0.70075  0.56916  1.0000
  Pb  Pb49      1.0  0.29059  0.28367  0.71287  1.0000
  Pb  Pb50      1.0  0.42855  0.28367  0.71287  1.0000
  Pb  Pb51      1.0  0.56650  0.28367  0.71287  1.0000
  Pb  Pb52      1.0  0.70446  0.28367  0.71287  1.0000
  Pb  Pb53      1.0  0.29059  0.42270  0.71287  1.0000
  Pb  Pb54      1.0  0.42855  0.42270  0.71287  1.0000
  Pb  Pb55      1.0  0.56650  0.42270  0.71287  1.0000
  Pb  Pb56      1.0  0.70446  0.42270  0.71287  1.0000
  Pb  Pb57      1.0  0.29059  0.56172  0.71287  1.0000
  Pb  Pb58      1.0  0.42855  0.56172  0.71287  1.0000
  Pb  Pb59      1.0  0.56650  0.56172  0.71287  1.0000
  Pb  Pb60      1.0  0.70446  0.56172  0.71287  1.0000
  Pb  Pb61      1.0  0.29059  0.70075  0.71287  1.0000
  Pb  Pb62      1.0  0.42855  0.70075  0.71287  1.0000
  Pb  Pb63      1.0  0.56650  0.70075  0.71287  1.0000
  Pb  Pb64      1.0  0.70446  0.70075  0.71287  1.0000
  C   C1        1.0  0.34036  0.35318  0.20636  1.0000
  C   C2        1.0  0.47832  0.35318  0.20636  1.0000
  C   C3        1.0  0.61627  0.35318  0.20636  1.0000
  C   C4        1.0  0.34036  0.49221  0.20636  1.0000
  C   C5        1.0  0.47832  0.49221  0.20636  1.0000
  C   C6        1.0  0.61627  0.49221  0.20636  1.0000
  C   C7        1.0  0.34036  0.63124  0.20636  1.0000
  C   C8        1.0  0.47832  0.63124  0.20636  1.0000
  C   C9        1.0  0.61627  0.63124  0.20636  1.0000
  C   C10       1.0  0.34365  0.21416  0.35007  1.0000
  C   C11       1.0  0.48160  0.21416  0.35007  1.0000
  C   C12       1.0  0.61956  0.21416  0.35007  1.0000
  C   C13       1.0  0.20570  0.35318  0.35007  1.0000
  C   C14       1.0  0.34365  0.35318  0.35007  1.0000
  C   C15       1.0  0.48161  0.35318  0.35007  1.0000
  C   C16       1.0  0.61956  0.35318  0.35007  1.0000
  C   C17       1.0  0.75751  0.35318  0.35007  1.0000
  C   C18       1.0  0.20570  0.49221  0.35007  1.0000
  C   C19       1.0  0.34365  0.49221  0.35007  1.0000
  C   C20       1.0  0.48161  0.49221  0.35007  1.0000
  C   C21       1.0  0.61956  0.49221  0.35007  1.0000
  C   C22       1.0  0.75751  0.49221  0.35007  1.0000
  C   C23       1.0  0.20570  0.63124  0.35007  1.0000
  C   C24       1.0  0.34365  0.63124  0.35007  1.0000
  C   C25       1.0  0.48161  0.63124  0.35007  1.0000
  C   C26       1.0  0.61956  0.63124  0.35007  1.0000
  C   C27       1.0  0.75751  0.63124  0.35007  1.0000
  C   C28       1.0  0.34365  0.77027  0.35007  1.0000
  C   C29       1.0  0.48161  0.77027  0.35007  1.0000
  C   C30       1.0  0.61956  0.77027  0.35007  1.0000
  C   C31       1.0  0.34694  0.21416  0.49377  1.0000
  C   C32       1.0  0.48489  0.21416  0.49377  1.0000
  C   C33       1.0  0.62285  0.21416  0.49377  1.0000
  C   C34       1.0  0.20899  0.35318  0.49377  1.0000
  C   C35       1.0  0.34694  0.35318  0.49377  1.0000
  C   C36       1.0  0.48489  0.35318  0.49377  1.0000
  C   C37       1.0  0.62285  0.35318  0.49377  1.0000
  C   C38       1.0  0.76080  0.35318  0.49377  1.0000
  C   C39       1.0  0.20899  0.49221  0.49377  1.0000
  C   C40       1.0  0.34694  0.49221  0.49377  1.0000
  C   C41       1.0  0.48489  0.49221  0.49377  1.0000
  C   C42       1.0  0.62285  0.49221  0.49377  1.0000
  C   C43       1.0  0.76080  0.49221  0.49377  1.0000
  C   C44       1.0  0.20899  0.63124  0.49377  1.0000
  C   C45       1.0  0.34694  0.63124  0.49377  1.0000
  C   C46       1.0  0.48489  0.63124  0.49377  1.0000
  C   C47       1.0  0.62285  0.63124  0.49377  1.0000
  C   C48       1.0  0.76080  0.63124  0.49377  1.0000
  C   C49       1.0  0.34694  0.77027  0.49377  1.0000
  C   C50       1.0  0.48489  0.77027  0.49377  1.0000
  C   C51       1.0  0.62285  0.77027  0.49377  1.0000
  C   C52       1.0  0.35022  0.21416  0.63749  1.0000
  C   C53       1.0  0.48818  0.21416  0.63749  1.0000
  C   C54       1.0  0.62614  0.21416  0.63749  1.0000
  C   C55       1.0  0.21228  0.35318  0.63749  1.0000
  C   C56       1.0  0.35023  0.35318  0.63749  1.0000
  C   C57       1.0  0.48818  0.35318  0.63749  1.0000
  C   C58       1.0  0.62614  0.35318  0.63749  1.0000
  C   C59       1.0  0.76409  0.35318  0.63749  1.0000
  C   C60       1.0  0.21228  0.49221  0.63749  1.0000
  C   C61       1.0  0.35023  0.49221  0.63749  1.0000
  C   C62       1.0  0.48818  0.49221  0.63749  1.0000
  C   C63       1.0  0.62614  0.49221  0.63749  1.0000
  C   C64       1.0  0.76409  0.49221  0.63749  1.0000
  C   C65       1.0  0.21228  0.63124  0.63749  1.0000
  C   C66       1.0  0.35023  0.63124  0.63749  1.0000
  C   C67       1.0  0.48818  0.63124  0.63749  1.0000
  C   C68       1.0  0.62614  0.63124  0.63749  1.0000
  C   C69       1.0  0.76409  0.63124  0.63749  1.0000
  C   C70       1.0  0.35023  0.77027  0.63749  1.0000
  C   C71       1.0  0.48818  0.77027  0.63749  1.0000
  C   C72       1.0  0.62614  0.77027  0.63749  1.0000
  C   C73       1.0  0.35351  0.35318  0.78120  1.0000
  C   C74       1.0  0.49147  0.35318  0.78120  1.0000
  C   C75       1.0  0.62943  0.35318  0.78120  1.0000
  C   C76       1.0  0.35351  0.49221  0.78120  1.0000
  C   C77       1.0  0.49147  0.49221  0.78120  1.0000
  C   C78       1.0  0.62943  0.49221  0.78120  1.0000
  C   C79       1.0  0.35351  0.63124  0.78120  1.0000
  C   C80       1.0  0.49147  0.63124  0.78120  1.0000
  C   C81       1.0  0.62943  0.63124  0.78120  1.0000
  N   N1        1.0  0.37025  0.35318  0.22004  1.0000
  N   N2        1.0  0.50820  0.35318  0.22004  1.0000
  N   N3        1.0  0.64616  0.35318  0.22004  1.0000
  N   N4        1.0  0.37025  0.49221  0.22004  1.0000
  N   N5        1.0  0.50820  0.49221  0.22004  1.0000
  N   N6        1.0  0.64616  0.49221  0.22004  1.0000
  N   N7        1.0  0.37025  0.63124  0.22004  1.0000
  N   N8        1.0  0.50820  0.63124  0.22004  1.0000
  N   N9        1.0  0.64616  0.63124  0.22004  1.0000
  N   N10       1.0  0.37354  0.21416  0.36375  1.0000
  N   N11       1.0  0.51149  0.21416  0.36375  1.0000
  N   N12       1.0  0.64945  0.21416  0.36375  1.0000
  N   N13       1.0  0.23558  0.35318  0.36375  1.0000
  N   N14       1.0  0.37354  0.35318  0.36375  1.0000
  N   N15       1.0  0.51149  0.35318  0.36375  1.0000
  N   N16       1.0  0.64945  0.35318  0.36375  1.0000
  N   N17       1.0  0.78741  0.35318  0.36375  1.0000
  N   N18       1.0  0.23559  0.49221  0.36375  1.0000
  N   N19       1.0  0.37354  0.49221  0.36375  1.0000
  N   N20       1.0  0.51149  0.49221  0.36375  1.0000
  N   N21       1.0  0.64945  0.49221  0.36375  1.0000
  N   N22       1.0  0.78741  0.49221  0.36375  1.0000
  N   N23       1.0  0.23559  0.63124  0.36375  1.0000
  N   N24       1.0  0.37354  0.63124  0.36375  1.0000
  N   N25       1.0  0.51149  0.63124  0.36375  1.0000
  N   N26       1.0  0.64945  0.63124  0.36375  1.0000
  N   N27       1.0  0.78741  0.63124  0.36375  1.0000
  N   N28       1.0  0.37354  0.77027  0.36375  1.0000
  N   N29       1.0  0.51149  0.77027  0.36375  1.0000
  N   N30       1.0  0.64945  0.77027  0.36375  1.0000
  N   N31       1.0  0.37683  0.21416  0.50746  1.0000
  N   N32       1.0  0.51478  0.21416  0.50746  1.0000
  N   N33       1.0  0.65274  0.21416  0.50746  1.0000
  N   N34       1.0  0.23887  0.35318  0.50746  1.0000
  N   N35       1.0  0.37683  0.35318  0.50746  1.0000
  N   N36       1.0  0.51478  0.35318  0.50746  1.0000
  N   N37       1.0  0.65274  0.35318  0.50746  1.0000
  N   N38       1.0  0.79070  0.35318  0.50746  1.0000
  N   N39       1.0  0.23887  0.49221  0.50746  1.0000
  N   N40       1.0  0.37683  0.49221  0.50746  1.0000
  N   N41       1.0  0.51478  0.49221  0.50746  1.0000
  N   N42       1.0  0.65274  0.49221  0.50746  1.0000
  N   N43       1.0  0.79070  0.49221  0.50746  1.0000
  N   N44       1.0  0.23887  0.63124  0.50746  1.0000
  N   N45       1.0  0.37683  0.63124  0.50746  1.0000
  N   N46       1.0  0.51478  0.63124  0.50746  1.0000
  N   N47       1.0  0.65274  0.63124  0.50746  1.0000
  N   N48       1.0  0.79070  0.63124  0.50746  1.0000
  N   N49       1.0  0.37683  0.77027  0.50746  1.0000
  N   N50       1.0  0.51478  0.77027  0.50746  1.0000
  N   N51       1.0  0.65274  0.77027  0.50746  1.0000
  N   N52       1.0  0.38012  0.21416  0.65117  1.0000
  N   N53       1.0  0.51807  0.21416  0.65117  1.0000
  N   N54       1.0  0.65603  0.21416  0.65117  1.0000
  N   N55       1.0  0.24216  0.35318  0.65117  1.0000
  N   N56       1.0  0.38012  0.35318  0.65117  1.0000
  N   N57       1.0  0.51807  0.35318  0.65117  1.0000
  N   N58       1.0  0.65603  0.35318  0.65117  1.0000
  N   N59       1.0  0.79399  0.35318  0.65117  1.0000
  N   N60       1.0  0.24216  0.49221  0.65117  1.0000
  N   N61       1.0  0.38012  0.49221  0.65117  1.0000
  N   N62       1.0  0.51807  0.49221  0.65117  1.0000
  N   N63       1.0  0.65603  0.49221  0.65117  1.0000
  N   N64       1.0  0.79399  0.49221  0.65117  1.0000
  N   N65       1.0  0.24216  0.63124  0.65117  1.0000
  N   N66       1.0  0.38012  0.63124  0.65117  1.0000
  N   N67       1.0  0.51807  0.63124  0.65117  1.0000
  N   N68       1.0  0.65603  0.63124  0.65117  1.0000
  N   N69       1.0  0.79399  0.63124  0.65117  1.0000
  N   N70       1.0  0.38012  0.77027  0.65117  1.0000
  N   N71       1.0  0.51807  0.77027  0.65117  1.0000
  N   N72       1.0  0.65603  0.77027  0.65117  1.0000
  N   N73       1.0  0.38341  0.35318  0.79487  1.0000
  N   N74       1.0  0.52136  0.35318  0.79487  1.0000
  N   N75       1.0  0.65932  0.35318  0.79487  1.0000
  N   N76       1.0  0.38341  0.49221  0.79487  1.0000
  N   N77       1.0  0.52136  0.49221  0.79487  1.0000
  N   N78       1.0  0.65932  0.49221  0.79487  1.0000
  N   N79       1.0  0.38341  0.63124  0.79487  1.0000
  N   N80       1.0  0.52136  0.63124  0.79487  1.0000
  N   N81       1.0  0.65932  0.63124  0.79487  1.0000
  H   H1        1.0  0.34261  0.35318  0.18173  1.0000
  H   H2        1.0  0.32876  0.37320  0.21383  1.0000
  H   H3        1.0  0.32876  0.33317  0.21383  1.0000
  H   H4        1.0  0.38218  0.37190  0.21367  1.0000
  H   H5        1.0  0.38218  0.33447  0.21367  1.0000
  H   H6        1.0  0.36980  0.35318  0.24343  1.0000
  H   H7        1.0  0.48057  0.35318  0.18173  1.0000
  H   H8        1.0  0.46672  0.37320  0.21383  1.0000
  H   H9        1.0  0.46672  0.33317  0.21383  1.0000
  H   H10       1.0  0.52013  0.37190  0.21367  1.0000
  H   H11       1.0  0.52013  0.33447  0.21367  1.0000
  H   H12       1.0  0.50775  0.35318  0.24343  1.0000
  H   H13       1.0  0.61852  0.35318  0.18173  1.0000
  H   H14       1.0  0.60467  0.37320  0.21383  1.0000
  H   H15       1.0  0.60467  0.33317  0.21383  1.0000
  H   H16       1.0  0.65809  0.37190  0.21367  1.0000
  H   H17       1.0  0.65809  0.33447  0.21367  1.0000
  H   H18       1.0  0.64570  0.35318  0.24343  1.0000
  H   H19       1.0  0.34261  0.49221  0.18173  1.0000
  H   H20       1.0  0.32876  0.51223  0.21383  1.0000
  H   H21       1.0  0.32876  0.47219  0.21383  1.0000
  H   H22       1.0  0.38218  0.51092  0.21367  1.0000
  H   H23       1.0  0.38218  0.47350  0.21367  1.0000
  H   H24       1.0  0.36980  0.49221  0.24343  1.0000
  H   H25       1.0  0.48057  0.49221  0.18173  1.0000
  H   H26       1.0  0.46672  0.51223  0.21383  1.0000
  H   H27       1.0  0.46672  0.47219  0.21383  1.0000
  H   H28       1.0  0.52013  0.51092  0.21367  1.0000
  H   H29       1.0  0.52013  0.47350  0.21367  1.0000
  H   H30       1.0  0.50775  0.49221  0.24343  1.0000
  H   H31       1.0  0.61852  0.49221  0.18173  1.0000
  H   H32       1.0  0.60467  0.51223  0.21383  1.0000
  H   H33       1.0  0.60467  0.47219  0.21383  1.0000
  H   H34       1.0  0.65809  0.51092  0.21367  1.0000
  H   H35       1.0  0.65809  0.47350  0.21367  1.0000
  H   H36       1.0  0.64570  0.49221  0.24343  1.0000
  H   H37       1.0  0.34261  0.63124  0.18173  1.0000
  H   H38       1.0  0.32876  0.65126  0.21383  1.0000
  H   H39       1.0  0.32876  0.61122  0.21383  1.0000
  H   H40       1.0  0.38218  0.64995  0.21367  1.0000
  H   H41       1.0  0.38218  0.61253  0.21367  1.0000
  H   H42       1.0  0.36980  0.63124  0.24343  1.0000
  H   H43       1.0  0.48057  0.63124  0.18173  1.0000
  H   H44       1.0  0.46672  0.65126  0.21383  1.0000
  H   H45       1.0  0.46672  0.61122  0.21383  1.0000
  H   H46       1.0  0.52014  0.64995  0.21367  1.0000
  H   H47       1.0  0.52014  0.61253  0.21367  1.0000
  H   H48       1.0  0.50775  0.63124  0.24343  1.0000
  H   H49       1.0  0.61852  0.63124  0.18173  1.0000
  H   H50       1.0  0.60467  0.65126  0.21383  1.0000
  H   H51       1.0  0.60468  0.61122  0.21383  1.0000
  H   H52       1.0  0.65809  0.64995  0.21367  1.0000
  H   H53       1.0  0.65809  0.61253  0.21367  1.0000
  H   H54       1.0  0.64570  0.63124  0.24343  1.0000
  H   H55       1.0  0.34590  0.21416  0.32544  1.0000
  H   H56       1.0  0.33205  0.23417  0.35754  1.0000
  H   H57       1.0  0.33205  0.19414  0.35754  1.0000
  H   H58       1.0  0.38547  0.23287  0.35737  1.0000
  H   H59       1.0  0.38547  0.19545  0.35737  1.0000
  H   H60       1.0  0.37308  0.21416  0.38714  1.0000
  H   H61       1.0  0.48386  0.21416  0.32544  1.0000
  H   H62       1.0  0.47001  0.23417  0.35754  1.0000
  H   H63       1.0  0.47001  0.19414  0.35754  1.0000
  H   H64       1.0  0.52342  0.23287  0.35737  1.0000
  H   H65       1.0  0.52342  0.19545  0.35737  1.0000
  H   H66       1.0  0.51104  0.21416  0.38714  1.0000
  H   H67       1.0  0.62181  0.21416  0.32544  1.0000
  H   H68       1.0  0.60796  0.23417  0.35754  1.0000
  H   H69       1.0  0.60796  0.19414  0.35754  1.0000
  H   H70       1.0  0.66138  0.23287  0.35737  1.0000
  H   H71       1.0  0.66138  0.19545  0.35737  1.0000
  H   H72       1.0  0.64899  0.21416  0.38714  1.0000
  H   H73       1.0  0.20794  0.35318  0.32544  1.0000
  H   H74       1.0  0.19409  0.37320  0.35754  1.0000
  H   H75       1.0  0.19410  0.33317  0.35754  1.0000
  H   H76       1.0  0.24752  0.37190  0.35737  1.0000
  H   H77       1.0  0.24752  0.33447  0.35737  1.0000
  H   H78       1.0  0.23513  0.35318  0.38714  1.0000
  H   H79       1.0  0.34590  0.35318  0.32544  1.0000
  H   H80       1.0  0.33205  0.37320  0.35754  1.0000
  H   H81       1.0  0.33205  0.33317  0.35754  1.0000
  H   H82       1.0  0.38547  0.37190  0.35737  1.0000
  H   H83       1.0  0.38547  0.33447  0.35737  1.0000
  H   H84       1.0  0.37309  0.35318  0.38714  1.0000
  H   H85       1.0  0.48386  0.35318  0.32544  1.0000
  H   H86       1.0  0.47001  0.37320  0.35754  1.0000
  H   H87       1.0  0.47001  0.33317  0.35754  1.0000
  H   H88       1.0  0.52342  0.37190  0.35737  1.0000
  H   H89       1.0  0.52342  0.33447  0.35737  1.0000
  H   H90       1.0  0.51104  0.35318  0.38714  1.0000
  H   H91       1.0  0.62181  0.35318  0.32544  1.0000
  H   H92       1.0  0.60796  0.37320  0.35754  1.0000
  H   H93       1.0  0.60796  0.33317  0.35754  1.0000
  H   H94       1.0  0.66138  0.37190  0.35737  1.0000
  H   H95       1.0  0.66138  0.33447  0.35737  1.0000
  H   H96       1.0  0.64899  0.35318  0.38714  1.0000
  H   H97       1.0  0.75976  0.35318  0.32544  1.0000
  H   H98       1.0  0.74591  0.37320  0.35754  1.0000
  H   H99       1.0  0.74591  0.33317  0.35754  1.0000
  H   H100      1.0  0.79933  0.37190  0.35737  1.0000
  H   H101      1.0  0.79933  0.33447  0.35737  1.0000
  H   H102      1.0  0.78695  0.35318  0.38714  1.0000
  H   H103      1.0  0.20794  0.49221  0.32544  1.0000
  H   H104      1.0  0.19409  0.51223  0.35754  1.0000
  H   H105      1.0  0.19410  0.47219  0.35754  1.0000
  H   H106      1.0  0.24752  0.51092  0.35737  1.0000
  H   H107      1.0  0.24752  0.47350  0.35737  1.0000
  H   H108      1.0  0.23513  0.49221  0.38714  1.0000
  H   H109      1.0  0.34590  0.49221  0.32544  1.0000
  H   H110      1.0  0.33205  0.51223  0.35754  1.0000
  H   H111      1.0  0.33205  0.47219  0.35754  1.0000
  H   H112      1.0  0.38547  0.51092  0.35737  1.0000
  H   H113      1.0  0.38547  0.47350  0.35737  1.0000
  H   H114      1.0  0.37309  0.49221  0.38714  1.0000
  H   H115      1.0  0.48386  0.49221  0.32544  1.0000
  H   H116      1.0  0.47001  0.51223  0.35754  1.0000
  H   H117      1.0  0.47001  0.47219  0.35754  1.0000
  H   H118      1.0  0.52342  0.51092  0.35737  1.0000
  H   H119      1.0  0.52342  0.47350  0.35737  1.0000
  H   H120      1.0  0.51104  0.49221  0.38714  1.0000
  H   H121      1.0  0.62181  0.49221  0.32544  1.0000
  H   H122      1.0  0.60796  0.51223  0.35754  1.0000
  H   H123      1.0  0.60796  0.47219  0.35754  1.0000
  H   H124      1.0  0.66138  0.51092  0.35737  1.0000
  H   H125      1.0  0.66138  0.47350  0.35737  1.0000
  H   H126      1.0  0.64899  0.49221  0.38714  1.0000
  H   H127      1.0  0.75976  0.49221  0.32544  1.0000
  H   H128      1.0  0.74591  0.51223  0.35754  1.0000
  H   H129      1.0  0.74591  0.47219  0.35754  1.0000
  H   H130      1.0  0.79933  0.51092  0.35737  1.0000
  H   H131      1.0  0.79933  0.47350  0.35737  1.0000
  H   H132      1.0  0.78695  0.49221  0.38714  1.0000
  H   H133      1.0  0.20794  0.63124  0.32544  1.0000
  H   H134      1.0  0.19409  0.65126  0.35754  1.0000
  H   H135      1.0  0.19410  0.61122  0.35754  1.0000
  H   H136      1.0  0.24752  0.64995  0.35737  1.0000
  H   H137      1.0  0.24752  0.61253  0.35737  1.0000
  H   H138      1.0  0.23513  0.63124  0.38714  1.0000
  H   H139      1.0  0.34590  0.63124  0.32544  1.0000
  H   H140      1.0  0.33205  0.65126  0.35754  1.0000
  H   H141      1.0  0.33205  0.61122  0.35754  1.0000
  H   H142      1.0  0.38547  0.64995  0.35737  1.0000
  H   H143      1.0  0.38547  0.61253  0.35737  1.0000
  H   H144      1.0  0.37309  0.63124  0.38714  1.0000
  H   H145      1.0  0.48386  0.63124  0.32544  1.0000
  H   H146      1.0  0.47001  0.65126  0.35754  1.0000
  H   H147      1.0  0.47001  0.61122  0.35754  1.0000
  H   H148      1.0  0.52342  0.64995  0.35737  1.0000
  H   H149      1.0  0.52342  0.61253  0.35737  1.0000
  H   H150      1.0  0.51104  0.63124  0.38714  1.0000
  H   H151      1.0  0.62181  0.63124  0.32544  1.0000
  H   H152      1.0  0.60796  0.65126  0.35754  1.0000
  H   H153      1.0  0.60796  0.61122  0.35754  1.0000
  H   H154      1.0  0.66138  0.64995  0.35737  1.0000
  H   H155      1.0  0.66138  0.61253  0.35737  1.0000
  H   H156      1.0  0.64899  0.63124  0.38714  1.0000
  H   H157      1.0  0.75976  0.63124  0.32544  1.0000
  H   H158      1.0  0.74591  0.65126  0.35754  1.0000
  H   H159      1.0  0.74591  0.61122  0.35754  1.0000
  H   H160      1.0  0.79933  0.64995  0.35737  1.0000
  H   H161      1.0  0.79933  0.61253  0.35737  1.0000
  H   H162      1.0  0.78695  0.63124  0.38714  1.0000
  H   H163      1.0  0.34590  0.77027  0.32544  1.0000
  H   H164      1.0  0.33205  0.79029  0.35754  1.0000
  H   H165      1.0  0.33205  0.75026  0.35754  1.0000
  H   H166      1.0  0.38547  0.78899  0.35737  1.0000
  H   H167      1.0  0.38547  0.75156  0.35737  1.0000
  H   H168      1.0  0.37309  0.77027  0.38714  1.0000
  H   H169      1.0  0.48386  0.77027  0.32544  1.0000
  H   H170      1.0  0.47001  0.79029  0.35754  1.0000
  H   H171      1.0  0.47001  0.75026  0.35754  1.0000
  H   H172      1.0  0.52342  0.78899  0.35737  1.0000
  H   H173      1.0  0.52342  0.75156  0.35737  1.0000
  H   H174      1.0  0.51104  0.77027  0.38714  1.0000
  H   H175      1.0  0.62181  0.77027  0.32544  1.0000
  H   H176      1.0  0.60796  0.79029  0.35754  1.0000
  H   H177      1.0  0.60796  0.75026  0.35754  1.0000
  H   H178      1.0  0.66138  0.78899  0.35737  1.0000
  H   H179      1.0  0.66138  0.75156  0.35737  1.0000
  H   H180      1.0  0.64899  0.77027  0.38714  1.0000
  H   H181      1.0  0.34919  0.21416  0.46915  1.0000
  H   H182      1.0  0.33534  0.23417  0.50124  1.0000
  H   H183      1.0  0.33534  0.19414  0.50124  1.0000
  H   H184      1.0  0.38875  0.23287  0.50109  1.0000
  H   H185      1.0  0.38875  0.19545  0.50109  1.0000
  H   H186      1.0  0.37637  0.21416  0.53084  1.0000
  H   H187      1.0  0.48714  0.21416  0.46915  1.0000
  H   H188      1.0  0.47329  0.23417  0.50124  1.0000
  H   H189      1.0  0.47329  0.19414  0.50124  1.0000
  H   H190      1.0  0.52671  0.23287  0.50109  1.0000
  H   H191      1.0  0.52671  0.19545  0.50109  1.0000
  H   H192      1.0  0.51433  0.21416  0.53084  1.0000
  H   H193      1.0  0.62509  0.21416  0.46915  1.0000
  H   H194      1.0  0.61124  0.23417  0.50124  1.0000
  H   H195      1.0  0.61125  0.19414  0.50124  1.0000
  H   H196      1.0  0.66467  0.23287  0.50109  1.0000
  H   H197      1.0  0.66467  0.19545  0.50109  1.0000
  H   H198      1.0  0.65228  0.21416  0.53084  1.0000
  H   H199      1.0  0.21123  0.35318  0.46915  1.0000
  H   H200      1.0  0.19738  0.37320  0.50124  1.0000
  H   H201      1.0  0.19739  0.33317  0.50124  1.0000
  H   H202      1.0  0.25080  0.37190  0.50109  1.0000
  H   H203      1.0  0.25080  0.33447  0.50109  1.0000
  H   H204      1.0  0.23842  0.35318  0.53084  1.0000
  H   H205      1.0  0.34919  0.35318  0.46915  1.0000
  H   H206      1.0  0.33534  0.37320  0.50124  1.0000
  H   H207      1.0  0.33534  0.33317  0.50124  1.0000
  H   H208      1.0  0.38875  0.37190  0.50109  1.0000
  H   H209      1.0  0.38875  0.33447  0.50109  1.0000
  H   H210      1.0  0.37637  0.35318  0.53084  1.0000
  H   H211      1.0  0.48714  0.35318  0.46915  1.0000
  H   H212      1.0  0.47329  0.37320  0.50124  1.0000
  H   H213      1.0  0.47329  0.33317  0.50124  1.0000
  H   H214      1.0  0.52671  0.37190  0.50109  1.0000
  H   H215      1.0  0.52671  0.33447  0.50109  1.0000
  H   H216      1.0  0.51433  0.35318  0.53084  1.0000
  H   H217      1.0  0.62509  0.35318  0.46915  1.0000
  H   H218      1.0  0.61124  0.37320  0.50124  1.0000
  H   H219      1.0  0.61125  0.33317  0.50124  1.0000
  H   H220      1.0  0.66467  0.37190  0.50109  1.0000
  H   H221      1.0  0.66467  0.33447  0.50109  1.0000
  H   H222      1.0  0.65228  0.35318  0.53084  1.0000
  H   H223      1.0  0.76305  0.35318  0.46915  1.0000
  H   H224      1.0  0.74920  0.37320  0.50124  1.0000
  H   H225      1.0  0.74920  0.33317  0.50124  1.0000
  H   H226      1.0  0.80262  0.37190  0.50109  1.0000
  H   H227      1.0  0.80262  0.33447  0.50109  1.0000
  H   H228      1.0  0.79024  0.35318  0.53084  1.0000
  H   H229      1.0  0.21123  0.49221  0.46915  1.0000
  H   H230      1.0  0.19738  0.51223  0.50124  1.0000
  H   H231      1.0  0.19739  0.47219  0.50124  1.0000
  H   H232      1.0  0.25081  0.51092  0.50109  1.0000
  H   H233      1.0  0.25081  0.47350  0.50109  1.0000
  H   H234      1.0  0.23842  0.49221  0.53084  1.0000
  H   H235      1.0  0.34919  0.49221  0.46915  1.0000
  H   H236      1.0  0.33534  0.51223  0.50124  1.0000
  H   H237      1.0  0.33534  0.47219  0.50124  1.0000
  H   H238      1.0  0.38876  0.51092  0.50109  1.0000
  H   H239      1.0  0.38876  0.47350  0.50109  1.0000
  H   H240      1.0  0.37637  0.49221  0.53084  1.0000
  H   H241      1.0  0.48714  0.49221  0.46915  1.0000
  H   H242      1.0  0.47329  0.51223  0.50124  1.0000
  H   H243      1.0  0.47329  0.47219  0.50124  1.0000
  H   H244      1.0  0.52671  0.51092  0.50109  1.0000
  H   H245      1.0  0.52671  0.47350  0.50109  1.0000
  H   H246      1.0  0.51433  0.49221  0.53084  1.0000
  H   H247      1.0  0.62509  0.49221  0.46915  1.0000
  H   H248      1.0  0.61124  0.51223  0.50124  1.0000
  H   H249      1.0  0.61125  0.47219  0.50124  1.0000
  H   H250      1.0  0.66467  0.51092  0.50109  1.0000
  H   H251      1.0  0.66467  0.47350  0.50109  1.0000
  H   H252      1.0  0.65228  0.49221  0.53084  1.0000
  H   H253      1.0  0.76305  0.49221  0.46915  1.0000
  H   H254      1.0  0.74920  0.51223  0.50124  1.0000
  H   H255      1.0  0.74920  0.47219  0.50124  1.0000
  H   H256      1.0  0.80262  0.51092  0.50109  1.0000
  H   H257      1.0  0.80262  0.47350  0.50109  1.0000
  H   H258      1.0  0.79024  0.49221  0.53084  1.0000
  H   H259      1.0  0.21123  0.63124  0.46915  1.0000
  H   H260      1.0  0.19738  0.65126  0.50124  1.0000
  H   H261      1.0  0.19739  0.61122  0.50124  1.0000
  H   H262      1.0  0.25081  0.64995  0.50109  1.0000
  H   H263      1.0  0.25081  0.61253  0.50109  1.0000
  H   H264      1.0  0.23842  0.63124  0.53084  1.0000
  H   H265      1.0  0.34919  0.63124  0.46915  1.0000
  H   H266      1.0  0.33534  0.65126  0.50124  1.0000
  H   H267      1.0  0.33534  0.61122  0.50124  1.0000
  H   H268      1.0  0.38876  0.64995  0.50109  1.0000
  H   H269      1.0  0.38876  0.61253  0.50109  1.0000
  H   H270      1.0  0.37637  0.63124  0.53084  1.0000
  H   H271      1.0  0.48715  0.63124  0.46915  1.0000
  H   H272      1.0  0.47330  0.65126  0.50124  1.0000
  H   H273      1.0  0.47330  0.61122  0.50124  1.0000
  H   H274      1.0  0.52671  0.64995  0.50109  1.0000
  H   H275      1.0  0.52671  0.61253  0.50109  1.0000
  H   H276      1.0  0.51433  0.63124  0.53084  1.0000
  H   H277      1.0  0.62510  0.63124  0.46915  1.0000
  H   H278      1.0  0.61124  0.65126  0.50124  1.0000
  H   H279      1.0  0.61125  0.61122  0.50124  1.0000
  H   H280      1.0  0.66467  0.64995  0.50109  1.0000
  H   H281      1.0  0.66467  0.61253  0.50109  1.0000
  H   H282      1.0  0.65228  0.63124  0.53084  1.0000
  H   H283      1.0  0.76305  0.63124  0.46915  1.0000
  H   H284      1.0  0.74920  0.65126  0.50124  1.0000
  H   H285      1.0  0.74920  0.61122  0.50124  1.0000
  H   H286      1.0  0.80262  0.64995  0.50109  1.0000
  H   H287      1.0  0.80262  0.61253  0.50109  1.0000
  H   H288      1.0  0.79024  0.63124  0.53084  1.0000
  H   H289      1.0  0.34919  0.77027  0.46915  1.0000
  H   H290      1.0  0.33534  0.79029  0.50124  1.0000
  H   H291      1.0  0.33534  0.75025  0.50124  1.0000
  H   H292      1.0  0.38876  0.78899  0.50109  1.0000
  H   H293      1.0  0.38876  0.75156  0.50109  1.0000
  H   H294      1.0  0.37637  0.77027  0.53084  1.0000
  H   H295      1.0  0.48715  0.77027  0.46915  1.0000
  H   H296      1.0  0.47330  0.79029  0.50124  1.0000
  H   H297      1.0  0.47330  0.75025  0.50124  1.0000
  H   H298      1.0  0.52671  0.78899  0.50109  1.0000
  H   H299      1.0  0.52671  0.75156  0.50109  1.0000
  H   H300      1.0  0.51433  0.77027  0.53084  1.0000
  H   H301      1.0  0.62510  0.77027  0.46915  1.0000
  H   H302      1.0  0.61125  0.79029  0.50124  1.0000
  H   H303      1.0  0.61125  0.75025  0.50124  1.0000
  H   H304      1.0  0.66467  0.78899  0.50109  1.0000
  H   H305      1.0  0.66467  0.75156  0.50109  1.0000
  H   H306      1.0  0.65228  0.77027  0.53084  1.0000
  H   H307      1.0  0.35248  0.21416  0.61286  1.0000
  H   H308      1.0  0.33863  0.23417  0.64495  1.0000
  H   H309      1.0  0.33863  0.19414  0.64495  1.0000
  H   H310      1.0  0.39204  0.23287  0.64480  1.0000
  H   H311      1.0  0.39204  0.19545  0.64480  1.0000
  H   H312      1.0  0.37966  0.21416  0.67455  1.0000
  H   H313      1.0  0.49043  0.21416  0.61286  1.0000
  H   H314      1.0  0.47658  0.23417  0.64495  1.0000
  H   H315      1.0  0.47658  0.19414  0.64495  1.0000
  H   H316      1.0  0.53000  0.23287  0.64480  1.0000
  H   H317      1.0  0.53000  0.19545  0.64480  1.0000
  H   H318      1.0  0.51762  0.21416  0.67455  1.0000
  H   H319      1.0  0.62838  0.21416  0.61286  1.0000
  H   H320      1.0  0.61453  0.23417  0.64495  1.0000
  H   H321      1.0  0.61454  0.19414  0.64495  1.0000
  H   H322      1.0  0.66796  0.23287  0.64480  1.0000
  H   H323      1.0  0.66796  0.19545  0.64480  1.0000
  H   H324      1.0  0.65557  0.21416  0.67455  1.0000
  H   H325      1.0  0.21452  0.35318  0.61286  1.0000
  H   H326      1.0  0.20067  0.37320  0.64495  1.0000
  H   H327      1.0  0.20068  0.33317  0.64495  1.0000
  H   H328      1.0  0.25409  0.37190  0.64480  1.0000
  H   H329      1.0  0.25409  0.33447  0.64480  1.0000
  H   H330      1.0  0.24171  0.35318  0.67455  1.0000
  H   H331      1.0  0.35248  0.35318  0.61286  1.0000
  H   H332      1.0  0.33863  0.37320  0.64495  1.0000
  H   H333      1.0  0.33863  0.33317  0.64495  1.0000
  H   H334      1.0  0.39204  0.37190  0.64480  1.0000
  H   H335      1.0  0.39204  0.33447  0.64480  1.0000
  H   H336      1.0  0.37966  0.35318  0.67455  1.0000
  H   H337      1.0  0.49043  0.35318  0.61286  1.0000
  H   H338      1.0  0.47658  0.37320  0.64495  1.0000
  H   H339      1.0  0.47658  0.33317  0.64495  1.0000
  H   H340      1.0  0.53000  0.37190  0.64480  1.0000
  H   H341      1.0  0.53000  0.33447  0.64480  1.0000
  H   H342      1.0  0.51762  0.35318  0.67455  1.0000
  H   H343      1.0  0.62838  0.35318  0.61286  1.0000
  H   H344      1.0  0.61453  0.37320  0.64495  1.0000
  H   H345      1.0  0.61454  0.33317  0.64495  1.0000
  H   H346      1.0  0.66796  0.37190  0.64480  1.0000
  H   H347      1.0  0.66796  0.33447  0.64480  1.0000
  H   H348      1.0  0.65557  0.35318  0.67455  1.0000
  H   H349      1.0  0.76634  0.35318  0.61286  1.0000
  H   H350      1.0  0.75249  0.37320  0.64495  1.0000
  H   H351      1.0  0.75249  0.33317  0.64495  1.0000
  H   H352      1.0  0.80591  0.37190  0.64480  1.0000
  H   H353      1.0  0.80591  0.33447  0.64480  1.0000
  H   H354      1.0  0.79353  0.35318  0.67455  1.0000
  H   H355      1.0  0.21452  0.49221  0.61286  1.0000
  H   H356      1.0  0.20067  0.51223  0.64495  1.0000
  H   H357      1.0  0.20068  0.47219  0.64495  1.0000
  H   H358      1.0  0.25409  0.51092  0.64480  1.0000
  H   H359      1.0  0.25409  0.47350  0.64480  1.0000
  H   H360      1.0  0.24171  0.49221  0.67455  1.0000
  H   H361      1.0  0.35248  0.49221  0.61286  1.0000
  H   H362      1.0  0.33863  0.51223  0.64495  1.0000
  H   H363      1.0  0.33863  0.47219  0.64495  1.0000
  H   H364      1.0  0.39204  0.51092  0.64480  1.0000
  H   H365      1.0  0.39204  0.47350  0.64480  1.0000
  H   H366      1.0  0.37966  0.49221  0.67455  1.0000
  H   H367      1.0  0.49043  0.49221  0.61286  1.0000
  H   H368      1.0  0.47658  0.51223  0.64495  1.0000
  H   H369      1.0  0.47658  0.47219  0.64495  1.0000
  H   H370      1.0  0.53000  0.51092  0.64480  1.0000
  H   H371      1.0  0.53000  0.47350  0.64480  1.0000
  H   H372      1.0  0.51762  0.49221  0.67455  1.0000
  H   H373      1.0  0.62838  0.49221  0.61286  1.0000
  H   H374      1.0  0.61453  0.51223  0.64495  1.0000
  H   H375      1.0  0.61454  0.47219  0.64495  1.0000
  H   H376      1.0  0.66796  0.51092  0.64480  1.0000
  H   H377      1.0  0.66796  0.47350  0.64480  1.0000
  H   H378      1.0  0.65557  0.49221  0.67455  1.0000
  H   H379      1.0  0.76634  0.49221  0.61286  1.0000
  H   H380      1.0  0.75249  0.51223  0.64495  1.0000
  H   H381      1.0  0.75249  0.47219  0.64495  1.0000
  H   H382      1.0  0.80591  0.51092  0.64480  1.0000
  H   H383      1.0  0.80591  0.47350  0.64480  1.0000
  H   H384      1.0  0.79353  0.49221  0.67455  1.0000
  H   H385      1.0  0.21452  0.63124  0.61286  1.0000
  H   H386      1.0  0.20067  0.65125  0.64495  1.0000
  H   H387      1.0  0.20068  0.61122  0.64495  1.0000
  H   H388      1.0  0.25409  0.64995  0.64480  1.0000
  H   H389      1.0  0.25409  0.61253  0.64480  1.0000
  H   H390      1.0  0.24171  0.63124  0.67455  1.0000
  H   H391      1.0  0.35248  0.63124  0.61286  1.0000
  H   H392      1.0  0.33863  0.65125  0.64495  1.0000
  H   H393      1.0  0.33863  0.61122  0.64495  1.0000
  H   H394      1.0  0.39204  0.64995  0.64480  1.0000
  H   H395      1.0  0.39204  0.61253  0.64480  1.0000
  H   H396      1.0  0.37966  0.63124  0.67455  1.0000
  H   H397      1.0  0.49043  0.63124  0.61286  1.0000
  H   H398      1.0  0.47658  0.65125  0.64495  1.0000
  H   H399      1.0  0.47658  0.61122  0.64495  1.0000
  H   H400      1.0  0.53000  0.64995  0.64480  1.0000
  H   H401      1.0  0.53000  0.61253  0.64480  1.0000
  H   H402      1.0  0.51762  0.63124  0.67455  1.0000
  H   H403      1.0  0.62838  0.63124  0.61286  1.0000
  H   H404      1.0  0.61453  0.65125  0.64495  1.0000
  H   H405      1.0  0.61454  0.61122  0.64495  1.0000
  H   H406      1.0  0.66796  0.64995  0.64480  1.0000
  H   H407      1.0  0.66796  0.61253  0.64480  1.0000
  H   H408      1.0  0.65557  0.63124  0.67455  1.0000
  H   H409      1.0  0.76634  0.63124  0.61286  1.0000
  H   H410      1.0  0.75249  0.65125  0.64495  1.0000
  H   H411      1.0  0.75249  0.61122  0.64495  1.0000
  H   H412      1.0  0.80591  0.64995  0.64480  1.0000
  H   H413      1.0  0.80591  0.61253  0.64480  1.0000
  H   H414      1.0  0.79353  0.63124  0.67455  1.0000
  H   H415      1.0  0.35248  0.77027  0.61286  1.0000
  H   H416      1.0  0.33863  0.79029  0.64495  1.0000
  H   H417      1.0  0.33863  0.75025  0.64495  1.0000
  H   H418      1.0  0.39204  0.78898  0.64480  1.0000
  H   H419      1.0  0.39204  0.75156  0.64480  1.0000
  H   H420      1.0  0.37966  0.77027  0.67455  1.0000
  H   H421      1.0  0.49043  0.77027  0.61286  1.0000
  H   H422      1.0  0.47658  0.79029  0.64495  1.0000
  H   H423      1.0  0.47658  0.75025  0.64495  1.0000
  H   H424      1.0  0.53000  0.78898  0.64480  1.0000
  H   H425      1.0  0.53000  0.75156  0.64480  1.0000
  H   H426      1.0  0.51762  0.77027  0.67455  1.0000
  H   H427      1.0  0.62838  0.77027  0.61286  1.0000
  H   H428      1.0  0.61453  0.79029  0.64495  1.0000
  H   H429      1.0  0.61454  0.75025  0.64495  1.0000
  H   H430      1.0  0.66796  0.78898  0.64480  1.0000
  H   H431      1.0  0.66796  0.75156  0.64480  1.0000
  H   H432      1.0  0.65557  0.77027  0.67455  1.0000
  H   H433      1.0  0.35576  0.35318  0.75656  1.0000
  H   H434      1.0  0.34191  0.37320  0.78867  1.0000
  H   H435      1.0  0.34191  0.33317  0.78867  1.0000
  H   H436      1.0  0.39533  0.37190  0.78850  1.0000
  H   H437      1.0  0.39533  0.33447  0.78850  1.0000
  H   H438      1.0  0.38295  0.35318  0.81827  1.0000
  H   H439      1.0  0.49372  0.35318  0.75656  1.0000
  H   H440      1.0  0.47987  0.37320  0.78867  1.0000
  H   H441      1.0  0.47987  0.33317  0.78867  1.0000
  H   H442      1.0  0.53329  0.37190  0.78850  1.0000
  H   H443      1.0  0.53329  0.33447  0.78850  1.0000
  H   H444      1.0  0.52091  0.35318  0.81827  1.0000
  H   H445      1.0  0.63167  0.35318  0.75656  1.0000
  H   H446      1.0  0.61782  0.37320  0.78867  1.0000
  H   H447      1.0  0.61783  0.33317  0.78867  1.0000
  H   H448      1.0  0.67125  0.37190  0.78850  1.0000
  H   H449      1.0  0.67125  0.33447  0.78850  1.0000
  H   H450      1.0  0.65886  0.35318  0.81827  1.0000
  H   H451      1.0  0.35577  0.49221  0.75656  1.0000
  H   H452      1.0  0.34192  0.51223  0.78867  1.0000
  H   H453      1.0  0.34192  0.47219  0.78867  1.0000
  H   H454      1.0  0.39533  0.51092  0.78850  1.0000
  H   H455      1.0  0.39533  0.47350  0.78850  1.0000
  H   H456      1.0  0.38295  0.49221  0.81827  1.0000
  H   H457      1.0  0.49372  0.49221  0.75656  1.0000
  H   H458      1.0  0.47987  0.51223  0.78867  1.0000
  H   H459      1.0  0.47987  0.47219  0.78867  1.0000
  H   H460      1.0  0.53329  0.51092  0.78850  1.0000
  H   H461      1.0  0.53329  0.47350  0.78850  1.0000
  H   H462      1.0  0.52091  0.49221  0.81827  1.0000
  H   H463      1.0  0.63167  0.49221  0.75656  1.0000
  H   H464      1.0  0.61782  0.51223  0.78867  1.0000
  H   H465      1.0  0.61783  0.47219  0.78867  1.0000
  H   H466      1.0  0.67125  0.51092  0.78850  1.0000
  H   H467      1.0  0.67125  0.47350  0.78850  1.0000
  H   H468      1.0  0.65886  0.49221  0.81827  1.0000
  H   H469      1.0  0.35577  0.63124  0.75656  1.0000
  H   H470      1.0  0.34192  0.65125  0.78867  1.0000
  H   H471      1.0  0.34192  0.61122  0.78867  1.0000
  H   H472      1.0  0.39533  0.64995  0.78850  1.0000
  H   H473      1.0  0.39533  0.61253  0.78850  1.0000
  H   H474      1.0  0.38295  0.63124  0.81827  1.0000
  H   H475      1.0  0.49372  0.63124  0.75656  1.0000
  H   H476      1.0  0.47987  0.65125  0.78867  1.0000
  H   H477      1.0  0.47987  0.61122  0.78867  1.0000
  H   H478      1.0  0.53329  0.64995  0.78850  1.0000
  H   H479      1.0  0.53329  0.61253  0.78850  1.0000
  H   H480      1.0  0.52091  0.63124  0.81827  1.0000
  H   H481      1.0  0.63167  0.63124  0.75656  1.0000
  H   H482      1.0  0.61782  0.65125  0.78867  1.0000
  H   H483      1.0  0.61783  0.61122  0.78867  1.0000
  H   H484      1.0  0.67125  0.64995  0.78850  1.0000
  H   H485      1.0  0.67125  0.61253  0.78850  1.0000
  H   H486      1.0  0.65886  0.63124  0.81827  1.0000
  H   H487      1.0  0.12051  0.26124  0.18693  1.0000
  O   O1        1.0  0.13585  0.24566  0.18693  1.0000
  H   H488      1.0  0.15118  0.26124  0.18693  1.0000
  H   H489      1.0  0.12051  0.26124  0.24955  1.0000
  O   O2        1.0  0.13585  0.24566  0.24955  1.0000
  H   H490      1.0  0.15118  0.26124  0.24955  1.0000
  H   H491      1.0  0.12051  0.26124  0.31216  1.0000
  O   O3        1.0  0.13585  0.24566  0.31216  1.0000
  H   H492      1.0  0.15118  0.26124  0.31216  1.0000
  H   H493      1.0  0.12051  0.26124  0.37477  1.0000
  O   O4        1.0  0.13585  0.24566  0.37477  1.0000
  H   H494      1.0  0.15118  0.26124  0.37477  1.0000
  H   H495      1.0  0.12051  0.26124  0.43739  1.0000
  O   O5        1.0  0.13585  0.24566  0.43739  1.0000
  H   H496      1.0  0.15118  0.26124  0.43739  1.0000
  H   H497      1.0  0.12051  0.26124  0.50000  1.0000
  O   O6        1.0  0.13585  0.24566  0.50000  1.0000
  H   H498      1.0  0.15118  0.26124  0.50000  1.0000
  H   H499      1.0  0.12051  0.26124  0.56261  1.0000
  O   O7        1.0  0.13585  0.24566  0.56261  1.0000
  H   H500      1.0  0.15118  0.26124  0.56261  1.0000
  H   H501      1.0  0.12051  0.26124  0.62523  1.0000
  O   O8        1.0  0.13585  0.24566  0.62523  1.0000
  H   H502      1.0  0.15118  0.26124  0.62523  1.0000
  H   H503      1.0  0.12051  0.26124  0.68784  1.0000
  O   O9        1.0  0.13585  0.24566  0.68784  1.0000
  H   H504      1.0  0.15118  0.26124  0.68784  1.0000
  H   H505      1.0  0.12051  0.26124  0.75045  1.0000
  O   O10       1.0  0.13585  0.24566  0.75045  1.0000
  H   H506      1.0  0.15118  0.26124  0.75045  1.0000
  H   H507      1.0  0.12051  0.26124  0.81307  1.0000
  O   O11       1.0  0.13585  0.24566  0.81307  1.0000
  H   H508      1.0  0.15118  0.26124  0.81307  1.0000
  H   H509      1.0  0.12051  0.32287  0.18693  1.0000
  O   O12       1.0  0.13585  0.30730  0.18693  1.0000
  H   H510      1.0  0.15118  0.32287  0.18693  1.0000
  H   H511      1.0  0.12051  0.32287  0.24955  1.0000
  O   O13       1.0  0.13585  0.30730  0.24955  1.0000
  H   H512      1.0  0.15118  0.32287  0.24955  1.0000
  H   H513      1.0  0.12051  0.32287  0.31216  1.0000
  O   O14       1.0  0.13585  0.30730  0.31216  1.0000
  H   H514      1.0  0.15118  0.32287  0.31216  1.0000
  H   H515      1.0  0.12051  0.32287  0.37477  1.0000
  O   O15       1.0  0.13585  0.30730  0.37477  1.0000
  H   H516      1.0  0.15118  0.32287  0.37477  1.0000
  H   H517      1.0  0.12051  0.32287  0.43739  1.0000
  O   O16       1.0  0.13585  0.30730  0.43739  1.0000
  H   H518      1.0  0.15118  0.32287  0.43739  1.0000
  H   H519      1.0  0.12051  0.32287  0.50000  1.0000
  O   O17       1.0  0.13585  0.30730  0.50000  1.0000
  H   H520      1.0  0.15118  0.32287  0.50000  1.0000
  H   H521      1.0  0.12051  0.32287  0.56261  1.0000
  O   O18       1.0  0.13585  0.30730  0.56261  1.0000
  H   H522      1.0  0.15118  0.32287  0.56261  1.0000
  H   H523      1.0  0.12051  0.32287  0.62523  1.0000
  O   O19       1.0  0.13585  0.30730  0.62523  1.0000
  H   H524      1.0  0.15118  0.32287  0.62523  1.0000
  H   H525      1.0  0.12051  0.32287  0.68784  1.0000
  O   O20       1.0  0.13585  0.30730  0.68784  1.0000
  H   H526      1.0  0.15118  0.32287  0.68784  1.0000
  H   H527      1.0  0.12051  0.32287  0.75045  1.0000
  O   O21       1.0  0.13585  0.30730  0.75045  1.0000
  H   H528      1.0  0.15118  0.32287  0.75045  1.0000
  H   H529      1.0  0.12051  0.32287  0.81307  1.0000
  O   O22       1.0  0.13585  0.30730  0.81307  1.0000
  H   H530      1.0  0.15118  0.32287  0.81307  1.0000
  H   H531      1.0  0.12051  0.38451  0.18693  1.0000
  O   O23       1.0  0.13585  0.36894  0.18693  1.0000
  H   H532      1.0  0.15118  0.38451  0.18693  1.0000
  H   H533      1.0  0.12051  0.38451  0.24955  1.0000
  O   O24       1.0  0.13585  0.36894  0.24955  1.0000
  H   H534      1.0  0.15118  0.38451  0.24955  1.0000
  H   H535      1.0  0.12051  0.38451  0.31216  1.0000
  O   O25       1.0  0.13585  0.36894  0.31216  1.0000
  H   H536      1.0  0.15118  0.38451  0.31216  1.0000
  H   H537      1.0  0.12051  0.38451  0.37477  1.0000
  O   O26       1.0  0.13585  0.36894  0.37477  1.0000
  H   H538      1.0  0.15118  0.38451  0.37477  1.0000
  H   H539      1.0  0.12051  0.38451  0.43739  1.0000
  O   O27       1.0  0.13585  0.36894  0.43739  1.0000
  H   H540      1.0  0.15118  0.38451  0.43739  1.0000
  H   H541      1.0  0.12051  0.38451  0.50000  1.0000
  O   O28       1.0  0.13585  0.36894  0.50000  1.0000
  H   H542      1.0  0.15118  0.38451  0.50000  1.0000
  H   H543      1.0  0.12051  0.38451  0.56261  1.0000
  O   O29       1.0  0.13585  0.36894  0.56261  1.0000
  H   H544      1.0  0.15118  0.38451  0.56261  1.0000
  H   H545      1.0  0.12051  0.38451  0.62523  1.0000
  O   O30       1.0  0.13585  0.36894  0.62523  1.0000
  H   H546      1.0  0.15118  0.38451  0.62523  1.0000
  H   H547      1.0  0.12051  0.38451  0.68784  1.0000
  O   O31       1.0  0.13585  0.36894  0.68784  1.0000
  H   H548      1.0  0.15118  0.38451  0.68784  1.0000
  H   H549      1.0  0.12051  0.38451  0.75045  1.0000
  O   O32       1.0  0.13585  0.36894  0.75045  1.0000
  H   H550      1.0  0.15118  0.38451  0.75045  1.0000
  H   H551      1.0  0.12051  0.38451  0.81307  1.0000
  O   O33       1.0  0.13585  0.36894  0.81307  1.0000
  H   H552      1.0  0.15118  0.38451  0.81307  1.0000
  H   H553      1.0  0.12051  0.44615  0.18693  1.0000
  O   O34       1.0  0.13585  0.43057  0.18693  1.0000
  H   H554      1.0  0.15118  0.44615  0.18693  1.0000
  H   H555      1.0  0.12051  0.44615  0.24955  1.0000
  O   O35       1.0  0.13585  0.43057  0.24955  1.0000
  H   H556      1.0  0.15118  0.44615  0.24955  1.0000
  H   H557      1.0  0.12051  0.44615  0.31216  1.0000
  O   O36       1.0  0.13585  0.43057  0.31216  1.0000
  H   H558      1.0  0.15118  0.44615  0.31216  1.0000
  H   H559      1.0  0.12051  0.44615  0.37477  1.0000
  O   O37       1.0  0.13585  0.43057  0.37477  1.0000
  H   H560      1.0  0.15118  0.44615  0.37477  1.0000
  H   H561      1.0  0.12051  0.44615  0.43739  1.0000
  O   O38       1.0  0.13585  0.43057  0.43739  1.0000
  H   H562      1.0  0.15118  0.44615  0.43739  1.0000
  H   H563      1.0  0.12051  0.44615  0.50000  1.0000
  O   O39       1.0  0.13585  0.43057  0.50000  1.0000
  H   H564      1.0  0.15118  0.44615  0.50000  1.0000
  H   H565      1.0  0.12051  0.44615  0.56261  1.0000
  O   O40       1.0  0.13585  0.43057  0.56261  1.0000
  H   H566      1.0  0.15118  0.44615  0.56261  1.0000
  H   H567      1.0  0.12051  0.44615  0.62523  1.0000
  O   O41       1.0  0.13585  0.43057  0.62523  1.0000
  H   H568      1.0  0.15118  0.44615  0.62523  1.0000
  H   H569      1.0  0.12051  0.44615  0.68784  1.0000
  O   O42       1.0  0.13585  0.43057  0.68784  1.0000
  H   H570      1.0  0.15118  0.44615  0.68784  1.0000
  H   H571      1.0  0.12051  0.44615  0.75045  1.0000
  O   O43       1.0  0.13585  0.43057  0.75045  1.0000
  H   H572      1.0  0.15118  0.44615  0.75045  1.0000
  H   H573      1.0  0.12051  0.44615  0.81307  1.0000
  O   O44       1.0  0.13585  0.43057  0.81307  1.0000
  H   H574      1.0  0.15118  0.44615  0.81307  1.0000
  H   H575      1.0  0.12051  0.50779  0.18693  1.0000
  O   O45       1.0  0.13585  0.49221  0.18693  1.0000
  H   H576      1.0  0.15118  0.50779  0.18693  1.0000
  H   H577      1.0  0.12051  0.50779  0.24955  1.0000
  O   O46       1.0  0.13585  0.49221  0.24955  1.0000
  H   H578      1.0  0.15118  0.50779  0.24955  1.0000
  H   H579      1.0  0.12051  0.50779  0.31216  1.0000
  O   O47       1.0  0.13585  0.49221  0.31216  1.0000
  H   H580      1.0  0.15118  0.50779  0.31216  1.0000
  H   H581      1.0  0.12051  0.50779  0.37477  1.0000
  O   O48       1.0  0.13585  0.49221  0.37477  1.0000
  H   H582      1.0  0.15118  0.50779  0.37477  1.0000
  H   H583      1.0  0.12051  0.50779  0.43739  1.0000
  O   O49       1.0  0.13585  0.49221  0.43739  1.0000
  H   H584      1.0  0.15118  0.50779  0.43739  1.0000
  H   H585      1.0  0.12051  0.50779  0.50000  1.0000
  O   O50       1.0  0.13585  0.49221  0.50000  1.0000
  H   H586      1.0  0.15118  0.50779  0.50000  1.0000
  H   H587      1.0  0.12051  0.50779  0.56261  1.0000
  O   O51       1.0  0.13585  0.49221  0.56261  1.0000
  H   H588      1.0  0.15118  0.50779  0.56261  1.0000
  H   H589      1.0  0.12051  0.50779  0.62523  1.0000
  O   O52       1.0  0.13585  0.49221  0.62523  1.0000
  H   H590      1.0  0.15118  0.50779  0.62523  1.0000
  H   H591      1.0  0.12051  0.50779  0.68784  1.0000
  O   O53       1.0  0.13585  0.49221  0.68784  1.0000
  H   H592      1.0  0.15118  0.50779  0.68784  1.0000
  H   H593      1.0  0.12051  0.50779  0.75045  1.0000
  O   O54       1.0  0.13585  0.49221  0.75045  1.0000
  H   H594      1.0  0.15118  0.50779  0.75045  1.0000
  H   H595      1.0  0.12051  0.50779  0.81307  1.0000
  O   O55       1.0  0.13585  0.49221  0.81307  1.0000
  H   H596      1.0  0.15118  0.50779  0.81307  1.0000
  H   H597      1.0  0.12051  0.56943  0.18693  1.0000
  O   O56       1.0  0.13585  0.55385  0.18693  1.0000
  H   H598      1.0  0.15118  0.56943  0.18693  1.0000
  H   H599      1.0  0.12051  0.56943  0.24955  1.0000
  O   O57       1.0  0.13585  0.55385  0.24955  1.0000
  H   H600      1.0  0.15118  0.56943  0.24955  1.0000
  H   H601      1.0  0.12051  0.56943  0.31216  1.0000
  O   O58       1.0  0.13585  0.55385  0.31216  1.0000
  H   H602      1.0  0.15118  0.56943  0.31216  1.0000
  H   H603      1.0  0.12051  0.56943  0.37477  1.0000
  O   O59       1.0  0.13585  0.55385  0.37477  1.0000
  H   H604      1.0  0.15118  0.56943  0.37477  1.0000
  H   H605      1.0  0.12051  0.56943  0.43739  1.0000
  O   O60       1.0  0.13585  0.55385  0.43739  1.0000
  H   H606      1.0  0.15118  0.56943  0.43739  1.0000
  H   H607      1.0  0.12051  0.56943  0.50000  1.0000
  O   O61       1.0  0.13585  0.55385  0.50000  1.0000
  H   H608      1.0  0.15118  0.56943  0.50000  1.0000
  H   H609      1.0  0.12051  0.56943  0.56261  1.0000
  O   O62       1.0  0.13585  0.55385  0.56261  1.0000
  H   H610      1.0  0.15118  0.56943  0.56261  1.0000
  H   H611      1.0  0.12051  0.56943  0.62523  1.0000
  O   O63       1.0  0.13585  0.55385  0.62523  1.0000
  H   H612      1.0  0.15118  0.56943  0.62523  1.0000
  H   H613      1.0  0.12051  0.56943  0.68784  1.0000
  O   O64       1.0  0.13585  0.55385  0.68784  1.0000
  H   H614      1.0  0.15118  0.56943  0.68784  1.0000
  H   H615      1.0  0.12051  0.56943  0.75045  1.0000
  O   O65       1.0  0.13585  0.55385  0.75045  1.0000
  H   H616      1.0  0.15118  0.56943  0.75045  1.0000
  H   H617      1.0  0.12051  0.56943  0.81307  1.0000
  O   O66       1.0  0.13585  0.55385  0.81307  1.0000
  H   H618      1.0  0.15118  0.56943  0.81307  1.0000
  H   H619      1.0  0.12051  0.63106  0.18693  1.0000
  O   O67       1.0  0.13585  0.61549  0.18693  1.0000
  H   H620      1.0  0.15118  0.63106  0.18693  1.0000
  H   H621      1.0  0.12051  0.63106  0.24955  1.0000
  O   O68       1.0  0.13585  0.61549  0.24955  1.0000
  H   H622      1.0  0.15118  0.63106  0.24955  1.0000
  H   H623      1.0  0.12051  0.63106  0.31216  1.0000
  O   O69       1.0  0.13585  0.61549  0.31216  1.0000
  H   H624      1.0  0.15118  0.63106  0.31216  1.0000
  H   H625      1.0  0.12051  0.63106  0.37477  1.0000
  O   O70       1.0  0.13585  0.61549  0.37477  1.0000
  H   H626      1.0  0.15118  0.63106  0.37477  1.0000
  H   H627      1.0  0.12051  0.63106  0.43739  1.0000
  O   O71       1.0  0.13585  0.61549  0.43739  1.0000
  H   H628      1.0  0.15118  0.63106  0.43739  1.0000
  H   H629      1.0  0.12051  0.63106  0.50000  1.0000
  O   O72       1.0  0.13585  0.61549  0.50000  1.0000
  H   H630      1.0  0.15118  0.63106  0.50000  1.0000
  H   H631      1.0  0.12051  0.63106  0.56261  1.0000
  O   O73       1.0  0.13585  0.61549  0.56261  1.0000
  H   H632      1.0  0.15118  0.63106  0.56261  1.0000
  H   H633      1.0  0.12051  0.63106  0.62523  1.0000
  O   O74       1.0  0.13585  0.61549  0.62523  1.0000
  H   H634      1.0  0.15118  0.63106  0.62523  1.0000
  H   H635      1.0  0.12051  0.63106  0.68784  1.0000
  O   O75       1.0  0.13585  0.61549  0.68784  1.0000
  H   H636      1.0  0.15118  0.63106  0.68784  1.0000
  H   H637      1.0  0.12051  0.63106  0.75045  1.0000
  O   O76       1.0  0.13585  0.61549  0.75045  1.0000
  H   H638      1.0  0.15118  0.63106  0.75045  1.0000
  H   H639      1.0  0.12051  0.63106  0.81307  1.0000
  O   O77       1.0  0.13585  0.61549  0.81307  1.0000
  H   H640      1.0  0.15118  0.63106  0.81307  1.0000
  H   H641      1.0  0.12051  0.69270  0.18693  1.0000
  O   O78       1.0  0.13585  0.67713  0.18693  1.0000
  H   H642      1.0  0.15118  0.69270  0.18693  1.0000
  H   H643      1.0  0.12051  0.69270  0.24955  1.0000
  O   O79       1.0  0.13585  0.67713  0.24955  1.0000
  H   H644      1.0  0.15118  0.69270  0.24955  1.0000
  H   H645      1.0  0.12051  0.69270  0.31216  1.0000
  O   O80       1.0  0.13585  0.67713  0.31216  1.0000
  H   H646      1.0  0.15118  0.69270  0.31216  1.0000
  H   H647      1.0  0.12051  0.69270  0.37477  1.0000
  O   O81       1.0  0.13585  0.67713  0.37477  1.0000
  H   H648      1.0  0.15118  0.69270  0.37477  1.0000
  H   H649      1.0  0.12051  0.69270  0.43739  1.0000
  O   O82       1.0  0.13585  0.67713  0.43739  1.0000
  H   H650      1.0  0.15118  0.69270  0.43739  1.0000
  H   H651      1.0  0.12051  0.69270  0.50000  1.0000
  O   O83       1.0  0.13585  0.67713  0.50000  1.0000
  H   H652      1.0  0.15118  0.69270  0.50000  1.0000
  H   H653      1.0  0.12051  0.69270  0.56261  1.0000
  O   O84       1.0  0.13585  0.67713  0.56261  1.0000
  H   H654      1.0  0.15118  0.69270  0.56261  1.0000
  H   H655      1.0  0.12051  0.69270  0.62523  1.0000
  O   O85       1.0  0.13585  0.67713  0.62523  1.0000
  H   H656      1.0  0.15118  0.69270  0.62523  1.0000
  H   H657      1.0  0.12051  0.69270  0.68784  1.0000
  O   O86       1.0  0.13585  0.67713  0.68784  1.0000
  H   H658      1.0  0.15118  0.69270  0.68784  1.0000
  H   H659      1.0  0.12051  0.69270  0.75045  1.0000
  O   O87       1.0  0.13585  0.67713  0.75045  1.0000
  H   H660      1.0  0.15118  0.69270  0.75045  1.0000
  H   H661      1.0  0.12051  0.69270  0.81307  1.0000
  O   O88       1.0  0.13585  0.67713  0.81307  1.0000
  H   H662      1.0  0.15118  0.69270  0.81307  1.0000
  H   H663      1.0  0.12051  0.75434  0.18693  1.0000
  O   O89       1.0  0.13585  0.73876  0.18693  1.0000
  H   H664      1.0  0.15118  0.75434  0.18693  1.0000
  H   H665      1.0  0.12051  0.75434  0.24955  1.0000
  O   O90       1.0  0.13585  0.73876  0.24955  1.0000
  H   H666      1.0  0.15118  0.75434  0.24955  1.0000
  H   H667      1.0  0.12051  0.75434  0.31216  1.0000
  O   O91       1.0  0.13585  0.73876  0.31216  1.0000
  H   H668      1.0  0.15118  0.75434  0.31216  1.0000
  H   H669      1.0  0.12051  0.75434  0.37477  1.0000
  O   O92       1.0  0.13585  0.73876  0.37477  1.0000
  H   H670      1.0  0.15118  0.75434  0.37477  1.0000
  H   H671      1.0  0.12051  0.75434  0.43739  1.0000
  O   O93       1.0  0.13585  0.73876  0.43739  1.0000
  H   H672      1.0  0.15118  0.75434  0.43739  1.0000
  H   H673      1.0  0.12051  0.75434  0.50000  1.0000
  O   O94       1.0  0.13585  0.73876  0.50000  1.0000
  H   H674      1.0  0.15118  0.75434  0.50000  1.0000
  H   H675      1.0  0.12051  0.75434  0.56261  1.0000
  O   O95       1.0  0.13585  0.73876  0.56261  1.0000
  H   H676      1.0  0.15118  0.75434  0.56261  1.0000
  H   H677      1.0  0.12051  0.75434  0.62523  1.0000
  O   O96       1.0  0.13585  0.73876  0.62523  1.0000
  H   H678      1.0  0.15118  0.75434  0.62523  1.0000
  H   H679      1.0  0.12051  0.75434  0.68784  1.0000
  O   O97       1.0  0.13585  0.73876  0.68784  1.0000
  H   H680      1.0  0.15118  0.75434  0.68784  1.0000
  H   H681      1.0  0.12051  0.75434  0.75045  1.0000
  O   O98       1.0  0.13585  0.73876  0.75045  1.0000
  H   H682      1.0  0.15118  0.75434  0.75045  1.0000
  H   H683      1.0  0.12051  0.75434  0.81307  1.0000
  O   O99       1.0  0.13585  0.73876  0.81307  1.0000
  H   H684      1.0  0.15118  0.75434  0.81307  1.0000
  H   H685      1.0  0.18120  0.19960  0.12432  1.0000
  O   O100      1.0  0.19654  0.18402  0.12432  1.0000
  H   H686      1.0  0.21188  0.19960  0.12432  1.0000
  H   H687      1.0  0.18120  0.19960  0.18693  1.0000
  O   O101      1.0  0.19654  0.18402  0.18693  1.0000
  H   H688      1.0  0.21188  0.19960  0.18693  1.0000
  H   H689      1.0  0.18120  0.19960  0.24955  1.0000
  O   O102      1.0  0.19654  0.18402  0.24955  1.0000
  H   H690      1.0  0.21188  0.19960  0.24955  1.0000
  H   H691      1.0  0.18120  0.19960  0.31216  1.0000
  O   O103      1.0  0.19654  0.18402  0.31216  1.0000
  H   H692      1.0  0.21188  0.19960  0.31216  1.0000
  H   H693      1.0  0.18120  0.19960  0.37477  1.0000
  O   O104      1.0  0.19654  0.18402  0.37477  1.0000
  H   H694      1.0  0.21188  0.19960  0.37477  1.0000
  H   H695      1.0  0.18120  0.19960  0.43739  1.0000
  O   O105      1.0  0.19654  0.18402  0.43739  1.0000
  H   H696      1.0  0.21188  0.19960  0.43739  1.0000
  H   H697      1.0  0.18120  0.19960  0.50000  1.0000
  O   O106      1.0  0.19654  0.18402  0.50000  1.0000
  H   H698      1.0  0.21188  0.19960  0.50000  1.0000
  H   H699      1.0  0.18120  0.19960  0.56261  1.0000
  O   O107      1.0  0.19654  0.18402  0.56261  1.0000
  H   H700      1.0  0.21188  0.19960  0.56261  1.0000
  H   H701      1.0  0.18120  0.19960  0.62523  1.0000
  O   O108      1.0  0.19654  0.18402  0.62523  1.0000
  H   H702      1.0  0.21188  0.19960  0.62523  1.0000
  H   H703      1.0  0.18120  0.19960  0.68784  1.0000
  O   O109      1.0  0.19654  0.18402  0.68784  1.0000
  H   H704      1.0  0.21188  0.19960  0.68784  1.0000
  H   H705      1.0  0.18120  0.19960  0.75045  1.0000
  O   O110      1.0  0.19654  0.18402  0.75045  1.0000
  H   H706      1.0  0.21188  0.19960  0.75045  1.0000
  H   H707      1.0  0.18120  0.19960  0.81307  1.0000
  O   O111      1.0  0.19654  0.18402  0.81307  1.0000
  H   H708      1.0  0.21188  0.19960  0.81307  1.0000
  H   H709      1.0  0.18120  0.19960  0.87568  1.0000
  O   O112      1.0  0.19654  0.18402  0.87568  1.0000
  H   H710      1.0  0.21188  0.19960  0.87568  1.0000
  H   H711      1.0  0.18120  0.26124  0.12432  1.0000
  O   O113      1.0  0.19654  0.24566  0.12432  1.0000
  H   H712      1.0  0.21188  0.26124  0.12432  1.0000
  H   H713      1.0  0.18120  0.26124  0.18693  1.0000
  O   O114      1.0  0.19654  0.24566  0.18693  1.0000
  H   H714      1.0  0.21188  0.26124  0.18693  1.0000
  H   H715      1.0  0.18120  0.26124  0.37477  1.0000
  O   O115      1.0  0.19654  0.24566  0.37477  1.0000
  H   H716      1.0  0.21188  0.26124  0.37477  1.0000
  H   H717      1.0  0.18120  0.26124  0.50000  1.0000
  O   O116      1.0  0.19654  0.24566  0.50000  1.0000
  H   H718      1.0  0.21188  0.26124  0.50000  1.0000
  H   H719      1.0  0.18120  0.26124  0.62523  1.0000
  O   O117      1.0  0.19654  0.24566  0.62523  1.0000
  H   H720      1.0  0.21188  0.26124  0.62523  1.0000
  H   H721      1.0  0.18120  0.26124  0.75045  1.0000
  O   O118      1.0  0.19654  0.24566  0.75045  1.0000
  H   H722      1.0  0.21188  0.26124  0.75045  1.0000
  H   H723      1.0  0.18120  0.26124  0.81307  1.0000
  O   O119      1.0  0.19654  0.24566  0.81307  1.0000
  H   H724      1.0  0.21188  0.26124  0.81307  1.0000
  H   H725      1.0  0.18120  0.26124  0.87568  1.0000
  O   O120      1.0  0.19654  0.24566  0.87568  1.0000
  H   H726      1.0  0.21188  0.26124  0.87568  1.0000
  H   H727      1.0  0.18120  0.32287  0.12432  1.0000
  O   O121      1.0  0.19654  0.30730  0.12432  1.0000
  H   H728      1.0  0.21188  0.32287  0.12432  1.0000
  H   H729      1.0  0.18120  0.32287  0.18693  1.0000
  O   O122      1.0  0.19654  0.30730  0.18693  1.0000
  H   H730      1.0  0.21188  0.32287  0.18693  1.0000
  H   H731      1.0  0.18120  0.32287  0.81307  1.0000
  O   O123      1.0  0.19654  0.30730  0.81307  1.0000
  H   H732      1.0  0.21188  0.32287  0.81307  1.0000
  H   H733      1.0  0.18120  0.32287  0.87568  1.0000
  O   O124      1.0  0.19654  0.30730  0.87568  1.0000
  H   H734      1.0  0.21188  0.32287  0.87568  1.0000
  H   H735      1.0  0.18120  0.38451  0.12432  1.0000
  O   O125      1.0  0.19654  0.36894  0.12432  1.0000
  H   H736      1.0  0.21188  0.38451  0.12432  1.0000
  H   H737      1.0  0.18120  0.38451  0.18693  1.0000
  O   O126      1.0  0.19654  0.36894  0.18693  1.0000
  H   H738      1.0  0.21188  0.38451  0.18693  1.0000
  H   H739      1.0  0.18120  0.38451  0.24955  1.0000
  O   O127      1.0  0.19654  0.36894  0.24955  1.0000
  H   H740      1.0  0.21188  0.38451  0.24955  1.0000
  H   H741      1.0  0.18120  0.38451  0.75045  1.0000
  O   O128      1.0  0.19654  0.36894  0.75045  1.0000
  H   H742      1.0  0.21188  0.38451  0.75045  1.0000
  H   H743      1.0  0.18120  0.38451  0.81307  1.0000
  O   O129      1.0  0.19654  0.36894  0.81307  1.0000
  H   H744      1.0  0.21188  0.38451  0.81307  1.0000
  H   H745      1.0  0.18120  0.38451  0.87568  1.0000
  O   O130      1.0  0.19654  0.36894  0.87568  1.0000
  H   H746      1.0  0.21188  0.38451  0.87568  1.0000
  H   H747      1.0  0.18120  0.44615  0.12432  1.0000
  O   O131      1.0  0.19654  0.43057  0.12432  1.0000
  H   H748      1.0  0.21188  0.44615  0.12432  1.0000
  H   H749      1.0  0.18120  0.44615  0.18693  1.0000
  O   O132      1.0  0.19654  0.43057  0.18693  1.0000
  H   H750      1.0  0.21188  0.44615  0.18693  1.0000
  H   H751      1.0  0.18120  0.44615  0.81307  1.0000
  O   O133      1.0  0.19654  0.43057  0.81307  1.0000
  H   H752      1.0  0.21188  0.44615  0.81307  1.0000
  H   H753      1.0  0.18120  0.44615  0.87568  1.0000
  O   O134      1.0  0.19654  0.43057  0.87568  1.0000
  H   H754      1.0  0.21188  0.44615  0.87568  1.0000
  H   H755      1.0  0.18120  0.50779  0.12432  1.0000
  O   O135      1.0  0.19654  0.49221  0.12432  1.0000
  H   H756      1.0  0.21188  0.50779  0.12432  1.0000
  H   H757      1.0  0.18120  0.50779  0.18693  1.0000
  O   O136      1.0  0.19654  0.49221  0.18693  1.0000
  H   H758      1.0  0.21188  0.50779  0.18693  1.0000
  H   H759      1.0  0.18120  0.50779  0.24955  1.0000
  O   O137      1.0  0.19654  0.49221  0.24955  1.0000
  H   H760      1.0  0.21188  0.50779  0.24955  1.0000
  H   H761      1.0  0.18120  0.50779  0.75045  1.0000
  O   O138      1.0  0.19654  0.49221  0.75045  1.0000
  H   H762      1.0  0.21188  0.50779  0.75045  1.0000
  H   H763      1.0  0.18120  0.50779  0.81307  1.0000
  O   O139      1.0  0.19654  0.49221  0.81307  1.0000
  H   H764      1.0  0.21188  0.50779  0.81307  1.0000
  H   H765      1.0  0.18120  0.50779  0.87568  1.0000
  O   O140      1.0  0.19654  0.49221  0.87568  1.0000
  H   H766      1.0  0.21188  0.50779  0.87568  1.0000
  H   H767      1.0  0.18120  0.56943  0.12432  1.0000
  O   O141      1.0  0.19654  0.55385  0.12432  1.0000
  H   H768      1.0  0.21188  0.56943  0.12432  1.0000
  H   H769      1.0  0.18120  0.56943  0.18693  1.0000
  O   O142      1.0  0.19654  0.55385  0.18693  1.0000
  H   H770      1.0  0.21188  0.56943  0.18693  1.0000
  H   H771      1.0  0.18120  0.56943  0.81307  1.0000
  O   O143      1.0  0.19654  0.55385  0.81307  1.0000
  H   H772      1.0  0.21188  0.56943  0.81307  1.0000
  H   H773      1.0  0.18120  0.56943  0.87568  1.0000
  O   O144      1.0  0.19654  0.55385  0.87568  1.0000
  H   H774      1.0  0.21188  0.56943  0.87568  1.0000
  H   H775      1.0  0.18120  0.63106  0.12432  1.0000
  O   O145      1.0  0.19654  0.61549  0.12432  1.0000
  H   H776      1.0  0.21188  0.63106  0.12432  1.0000
  H   H777      1.0  0.18120  0.63106  0.18693  1.0000
  O   O146      1.0  0.19654  0.61549  0.18693  1.0000
  H   H778      1.0  0.21188  0.63106  0.18693  1.0000
  H   H779      1.0  0.18120  0.63106  0.24955  1.0000
  O   O147      1.0  0.19654  0.61549  0.24955  1.0000
  H   H780      1.0  0.21188  0.63106  0.24955  1.0000
  H   H781      1.0  0.18120  0.63106  0.75045  1.0000
  O   O148      1.0  0.19654  0.61549  0.75045  1.0000
  H   H782      1.0  0.21188  0.63106  0.75045  1.0000
  H   H783      1.0  0.18120  0.63106  0.81307  1.0000
  O   O149      1.0  0.19654  0.61549  0.81307  1.0000
  H   H784      1.0  0.21188  0.63106  0.81307  1.0000
  H   H785      1.0  0.18120  0.63106  0.87568  1.0000
  O   O150      1.0  0.19654  0.61549  0.87568  1.0000
  H   H786      1.0  0.21188  0.63106  0.87568  1.0000
  H   H787      1.0  0.18120  0.69270  0.12432  1.0000
  O   O151      1.0  0.19654  0.67713  0.12432  1.0000
  H   H788      1.0  0.21188  0.69270  0.12432  1.0000
  H   H789      1.0  0.18120  0.69270  0.18693  1.0000
  O   O152      1.0  0.19654  0.67713  0.18693  1.0000
  H   H790      1.0  0.21188  0.69270  0.18693  1.0000
  H   H791      1.0  0.18120  0.69270  0.81307  1.0000
  O   O153      1.0  0.19654  0.67713  0.81307  1.0000
  H   H792      1.0  0.21188  0.69270  0.81307  1.0000
  H   H793      1.0  0.18120  0.69270  0.87568  1.0000
  O   O154      1.0  0.19654  0.67713  0.87568  1.0000
  H   H794      1.0  0.21188  0.69270  0.87568  1.0000
  H   H795      1.0  0.18120  0.75434  0.12432  1.0000
  O   O155      1.0  0.19654  0.73876  0.12432  1.0000
  H   H796      1.0  0.21188  0.75434  0.12432  1.0000
  H   H797      1.0  0.18120  0.75434  0.18693  1.0000
  O   O156      1.0  0.19654  0.73876  0.18693  1.0000
  H   H798      1.0  0.21188  0.75434  0.18693  1.0000
  H   H799      1.0  0.18120  0.75434  0.37477  1.0000
  O   O157      1.0  0.19654  0.73876  0.37477  1.0000
  H   H800      1.0  0.21188  0.75434  0.37477  1.0000
  H   H801      1.0  0.18120  0.75434  0.50000  1.0000
  O   O158      1.0  0.19654  0.73876  0.50000  1.0000
  H   H802      1.0  0.21188  0.75434  0.50000  1.0000
  H   H803      1.0  0.18120  0.75434  0.62523  1.0000
  O   O159      1.0  0.19654  0.73876  0.62523  1.0000
  H   H804      1.0  0.21188  0.75434  0.62523  1.0000
  H   H805      1.0  0.18120  0.75434  0.75045  1.0000
  O   O160      1.0  0.19654  0.73876  0.75045  1.0000
  H   H806      1.0  0.21188  0.75434  0.75045  1.0000
  H   H807      1.0  0.18120  0.75434  0.81307  1.0000
  O   O161      1.0  0.19654  0.73876  0.81307  1.0000
  H   H808      1.0  0.21188  0.75434  0.81307  1.0000
  H   H809      1.0  0.18120  0.75434  0.87568  1.0000
  O   O162      1.0  0.19654  0.73876  0.87568  1.0000
  H   H810      1.0  0.21188  0.75434  0.87568  1.0000
  H   H811      1.0  0.18120  0.81598  0.12432  1.0000
  O   O163      1.0  0.19654  0.80040  0.12432  1.0000
  H   H812      1.0  0.21188  0.81598  0.12432  1.0000
  H   H813      1.0  0.18120  0.81598  0.18693  1.0000
  O   O164      1.0  0.19654  0.80040  0.18693  1.0000
  H   H814      1.0  0.21188  0.81598  0.18693  1.0000
  H   H815      1.0  0.18120  0.81598  0.24955  1.0000
  O   O165      1.0  0.19654  0.80040  0.24955  1.0000
  H   H816      1.0  0.21188  0.81598  0.24955  1.0000
  H   H817      1.0  0.18120  0.81598  0.31216  1.0000
  O   O166      1.0  0.19654  0.80040  0.31216  1.0000
  H   H818      1.0  0.21188  0.81598  0.31216  1.0000
  H   H819      1.0  0.18120  0.81598  0.37477  1.0000
  O   O167      1.0  0.19654  0.80040  0.37477  1.0000
  H   H820      1.0  0.21188  0.81598  0.37477  1.0000
  H   H821      1.0  0.18120  0.81598  0.43739  1.0000
  O   O168      1.0  0.19654  0.80040  0.43739  1.0000
  H   H822      1.0  0.21188  0.81598  0.43739  1.0000
  H   H823      1.0  0.18120  0.81598  0.50000  1.0000
  O   O169      1.0  0.19654  0.80040  0.50000  1.0000
  H   H824      1.0  0.21188  0.81598  0.50000  1.0000
  H   H825      1.0  0.18120  0.81598  0.56261  1.0000
  O   O170      1.0  0.19654  0.80040  0.56261  1.0000
  H   H826      1.0  0.21188  0.81598  0.56261  1.0000
  H   H827      1.0  0.18120  0.81598  0.62523  1.0000
  O   O171      1.0  0.19654  0.80040  0.62523  1.0000
  H   H828      1.0  0.21188  0.81598  0.62523  1.0000
  H   H829      1.0  0.18120  0.81598  0.68784  1.0000
  O   O172      1.0  0.19654  0.80040  0.68784  1.0000
  H   H830      1.0  0.21188  0.81598  0.68784  1.0000
  H   H831      1.0  0.18120  0.81598  0.75045  1.0000
  O   O173      1.0  0.19654  0.80040  0.75045  1.0000
  H   H832      1.0  0.21188  0.81598  0.75045  1.0000
  H   H833      1.0  0.18120  0.81598  0.81307  1.0000
  O   O174      1.0  0.19654  0.80040  0.81307  1.0000
  H   H834      1.0  0.21188  0.81598  0.81307  1.0000
  H   H835      1.0  0.18120  0.81598  0.87568  1.0000
  O   O175      1.0  0.19654  0.80040  0.87568  1.0000
  H   H836      1.0  0.21188  0.81598  0.87568  1.0000
  H   H837      1.0  0.24189  0.13796  0.18693  1.0000
  O   O176      1.0  0.25723  0.12239  0.18693  1.0000
  H   H838      1.0  0.27257  0.13796  0.18693  1.0000
  H   H839      1.0  0.24189  0.13796  0.24955  1.0000
  O   O177      1.0  0.25723  0.12239  0.24955  1.0000
  H   H840      1.0  0.27257  0.13796  0.24955  1.0000
  H   H841      1.0  0.24189  0.13796  0.31216  1.0000
  O   O178      1.0  0.25723  0.12239  0.31216  1.0000
  H   H842      1.0  0.27257  0.13796  0.31216  1.0000
  H   H843      1.0  0.24189  0.13796  0.37477  1.0000
  O   O179      1.0  0.25723  0.12239  0.37477  1.0000
  H   H844      1.0  0.27257  0.13796  0.37477  1.0000
  H   H845      1.0  0.24189  0.13796  0.43739  1.0000
  O   O180      1.0  0.25723  0.12239  0.43739  1.0000
  H   H846      1.0  0.27257  0.13796  0.43739  1.0000
  H   H847      1.0  0.24189  0.13796  0.50000  1.0000
  O   O181      1.0  0.25723  0.12239  0.50000  1.0000
  H   H848      1.0  0.27257  0.13796  0.50000  1.0000
  H   H849      1.0  0.24189  0.13796  0.56261  1.0000
  O   O182      1.0  0.25723  0.12239  0.56261  1.0000
  H   H850      1.0  0.27257  0.13796  0.56261  1.0000
  H   H851      1.0  0.24189  0.13796  0.62523  1.0000
  O   O183      1.0  0.25723  0.12239  0.62523  1.0000
  H   H852      1.0  0.27257  0.13796  0.62523  1.0000
  H   H853      1.0  0.24189  0.13796  0.68784  1.0000
  O   O184      1.0  0.25723  0.12239  0.68784  1.0000
  H   H854      1.0  0.27257  0.13796  0.68784  1.0000
  H   H855      1.0  0.24189  0.13796  0.75045  1.0000
  O   O185      1.0  0.25723  0.12239  0.75045  1.0000
  H   H856      1.0  0.27257  0.13796  0.75045  1.0000
  H   H857      1.0  0.24189  0.13796  0.81307  1.0000
  O   O186      1.0  0.25723  0.12239  0.81307  1.0000
  H   H858      1.0  0.27257  0.13796  0.81307  1.0000
  H   H859      1.0  0.24189  0.19960  0.12432  1.0000
  O   O187      1.0  0.25723  0.18402  0.12432  1.0000
  H   H860      1.0  0.27257  0.19960  0.12432  1.0000
  H   H861      1.0  0.24189  0.19960  0.18693  1.0000
  O   O188      1.0  0.25723  0.18402  0.18693  1.0000
  H   H862      1.0  0.27257  0.19960  0.18693  1.0000
  H   H863      1.0  0.24189  0.19960  0.37477  1.0000
  O   O189      1.0  0.25723  0.18402  0.37477  1.0000
  H   H864      1.0  0.27257  0.19960  0.37477  1.0000
  H   H865      1.0  0.24189  0.19960  0.50000  1.0000
  O   O190      1.0  0.25723  0.18402  0.50000  1.0000
  H   H866      1.0  0.27257  0.19960  0.50000  1.0000
  H   H867      1.0  0.24189  0.19960  0.62523  1.0000
  O   O191      1.0  0.25723  0.18402  0.62523  1.0000
  H   H868      1.0  0.27257  0.19960  0.62523  1.0000
  H   H869      1.0  0.24189  0.19960  0.81307  1.0000
  O   O192      1.0  0.25723  0.18402  0.81307  1.0000
  H   H870      1.0  0.27257  0.19960  0.81307  1.0000
  H   H871      1.0  0.24189  0.19960  0.87568  1.0000
  O   O193      1.0  0.25723  0.18402  0.87568  1.0000
  H   H872      1.0  0.27257  0.19960  0.87568  1.0000
  H   H873      1.0  0.24189  0.26124  0.12432  1.0000
  O   O194      1.0  0.25723  0.24566  0.12432  1.0000
  H   H874      1.0  0.27257  0.26124  0.12432  1.0000
  H   H875      1.0  0.24189  0.26124  0.81307  1.0000
  O   O195      1.0  0.25723  0.24566  0.81307  1.0000
  H   H876      1.0  0.27257  0.26124  0.81307  1.0000
  H   H877      1.0  0.24189  0.26124  0.87568  1.0000
  O   O196      1.0  0.25723  0.24566  0.87568  1.0000
  H   H878      1.0  0.27257  0.26124  0.87568  1.0000
  H   H879      1.0  0.24189  0.32287  0.12432  1.0000
  O   O197      1.0  0.25723  0.30730  0.12432  1.0000
  H   H880      1.0  0.27257  0.32287  0.12432  1.0000
  H   H881      1.0  0.24189  0.32287  0.87568  1.0000
  O   O198      1.0  0.25723  0.30730  0.87568  1.0000
  H   H882      1.0  0.27257  0.32287  0.87568  1.0000
  H   H883      1.0  0.24189  0.38451  0.12432  1.0000
  O   O199      1.0  0.25723  0.36894  0.12432  1.0000
  H   H884      1.0  0.27257  0.38451  0.12432  1.0000
  H   H885      1.0  0.24189  0.38451  0.18693  1.0000
  O   O200      1.0  0.25723  0.36894  0.18693  1.0000
  H   H886      1.0  0.27257  0.38451  0.18693  1.0000
  H   H887      1.0  0.24189  0.38451  0.81307  1.0000
  O   O201      1.0  0.25723  0.36894  0.81307  1.0000
  H   H888      1.0  0.27257  0.38451  0.81307  1.0000
  H   H889      1.0  0.24189  0.38451  0.87568  1.0000
  O   O202      1.0  0.25723  0.36894  0.87568  1.0000
  H   H890      1.0  0.27257  0.38451  0.87568  1.0000
  H   H891      1.0  0.24189  0.44615  0.12432  1.0000
  O   O203      1.0  0.25723  0.43057  0.12432  1.0000
  H   H892      1.0  0.27257  0.44615  0.12432  1.0000
  H   H893      1.0  0.24189  0.44615  0.87568  1.0000
  O   O204      1.0  0.25723  0.43057  0.87568  1.0000
  H   H894      1.0  0.27257  0.44615  0.87568  1.0000
  H   H895      1.0  0.24189  0.50779  0.12432  1.0000
  O   O205      1.0  0.25723  0.49221  0.12432  1.0000
  H   H896      1.0  0.27257  0.50779  0.12432  1.0000
  H   H897      1.0  0.24189  0.50779  0.18693  1.0000
  O   O206      1.0  0.25723  0.49221  0.18693  1.0000
  H   H898      1.0  0.27257  0.50779  0.18693  1.0000
  H   H899      1.0  0.24189  0.50779  0.81307  1.0000
  O   O207      1.0  0.25723  0.49221  0.81307  1.0000
  H   H900      1.0  0.27257  0.50779  0.81307  1.0000
  H   H901      1.0  0.24189  0.50779  0.87568  1.0000
  O   O208      1.0  0.25723  0.49221  0.87568  1.0000
  H   H902      1.0  0.27257  0.50779  0.87568  1.0000
  H   H903      1.0  0.24189  0.56943  0.12432  1.0000
  O   O209      1.0  0.25723  0.55385  0.12432  1.0000
  H   H904      1.0  0.27257  0.56943  0.12432  1.0000
  H   H905      1.0  0.24189  0.56943  0.87568  1.0000
  O   O210      1.0  0.25723  0.55385  0.87568  1.0000
  H   H906      1.0  0.27257  0.56943  0.87568  1.0000
  H   H907      1.0  0.24189  0.63106  0.12432  1.0000
  O   O211      1.0  0.25723  0.61549  0.12432  1.0000
  H   H908      1.0  0.27257  0.63106  0.12432  1.0000
  H   H909      1.0  0.24189  0.63106  0.18693  1.0000
  O   O212      1.0  0.25723  0.61549  0.18693  1.0000
  H   H910      1.0  0.27257  0.63106  0.18693  1.0000
  H   H911      1.0  0.24189  0.63106  0.81307  1.0000
  O   O213      1.0  0.25723  0.61549  0.81307  1.0000
  H   H912      1.0  0.27257  0.63106  0.81307  1.0000
  H   H913      1.0  0.24189  0.63106  0.87568  1.0000
  O   O214      1.0  0.25723  0.61549  0.87568  1.0000
  H   H914      1.0  0.27257  0.63106  0.87568  1.0000
  H   H915      1.0  0.24189  0.69270  0.12432  1.0000
  O   O215      1.0  0.25723  0.67713  0.12432  1.0000
  H   H916      1.0  0.27257  0.69270  0.12432  1.0000
  H   H917      1.0  0.24189  0.69270  0.87568  1.0000
  O   O216      1.0  0.25723  0.67713  0.87568  1.0000
  H   H918      1.0  0.27257  0.69270  0.87568  1.0000
  H   H919      1.0  0.24189  0.75434  0.12432  1.0000
  O   O217      1.0  0.25723  0.73876  0.12432  1.0000
  H   H920      1.0  0.27257  0.75434  0.12432  1.0000
  H   H921      1.0  0.24189  0.75434  0.81307  1.0000
  O   O218      1.0  0.25723  0.73876  0.81307  1.0000
  H   H922      1.0  0.27257  0.75434  0.81307  1.0000
  H   H923      1.0  0.24189  0.75434  0.87568  1.0000
  O   O219      1.0  0.25723  0.73876  0.87568  1.0000
  H   H924      1.0  0.27257  0.75434  0.87568  1.0000
  H   H925      1.0  0.24189  0.81598  0.12432  1.0000
  O   O220      1.0  0.25723  0.80040  0.12432  1.0000
  H   H926      1.0  0.27257  0.81598  0.12432  1.0000
  H   H927      1.0  0.24189  0.81598  0.18693  1.0000
  O   O221      1.0  0.25723  0.80040  0.18693  1.0000
  H   H928      1.0  0.27257  0.81598  0.18693  1.0000
  H   H929      1.0  0.24189  0.81598  0.37477  1.0000
  O   O222      1.0  0.25723  0.80040  0.37477  1.0000
  H   H930      1.0  0.27257  0.81598  0.37477  1.0000
  H   H931      1.0  0.24189  0.81598  0.50000  1.0000
  O   O223      1.0  0.25723  0.80040  0.50000  1.0000
  H   H932      1.0  0.27257  0.81598  0.50000  1.0000
  H   H933      1.0  0.24189  0.81598  0.62523  1.0000
  O   O224      1.0  0.25723  0.80040  0.62523  1.0000
  H   H934      1.0  0.27257  0.81598  0.62523  1.0000
  H   H935      1.0  0.24189  0.81598  0.81307  1.0000
  O   O225      1.0  0.25723  0.80040  0.81307  1.0000
  H   H936      1.0  0.27257  0.81598  0.81307  1.0000
  H   H937      1.0  0.24189  0.81598  0.87568  1.0000
  O   O226      1.0  0.25723  0.80040  0.87568  1.0000
  H   H938      1.0  0.27257  0.81598  0.87568  1.0000
  H   H939      1.0  0.24189  0.87761  0.18693  1.0000
  O   O227      1.0  0.25723  0.86204  0.18693  1.0000
  H   H940      1.0  0.27257  0.87761  0.18693  1.0000
  H   H941      1.0  0.24189  0.87761  0.24955  1.0000
  O   O228      1.0  0.25723  0.86204  0.24955  1.0000
  H   H942      1.0  0.27257  0.87761  0.24955  1.0000
  H   H943      1.0  0.24189  0.87761  0.31216  1.0000
  O   O229      1.0  0.25723  0.86204  0.31216  1.0000
  H   H944      1.0  0.27257  0.87761  0.31216  1.0000
  H   H945      1.0  0.24189  0.87761  0.37477  1.0000
  O   O230      1.0  0.25723  0.86204  0.37477  1.0000
  H   H946      1.0  0.27257  0.87761  0.37477  1.0000
  H   H947      1.0  0.24189  0.87761  0.43739  1.0000
  O   O231      1.0  0.25723  0.86204  0.43739  1.0000
  H   H948      1.0  0.27257  0.87761  0.43739  1.0000
  H   H949      1.0  0.24189  0.87761  0.50000  1.0000
  O   O232      1.0  0.25723  0.86204  0.50000  1.0000
  H   H950      1.0  0.27257  0.87761  0.50000  1.0000
  H   H951      1.0  0.24189  0.87761  0.56261  1.0000
  O   O233      1.0  0.25723  0.86204  0.56261  1.0000
  H   H952      1.0  0.27257  0.87761  0.56261  1.0000
  H   H953      1.0  0.24189  0.87761  0.62523  1.0000
  O   O234      1.0  0.25723  0.86204  0.62523  1.0000
  H   H954      1.0  0.27257  0.87761  0.62523  1.0000
  H   H955      1.0  0.24189  0.87761  0.68784  1.0000
  O   O235      1.0  0.25723  0.86204  0.68784  1.0000
  H   H956      1.0  0.27257  0.87761  0.68784  1.0000
  H   H957      1.0  0.24189  0.87761  0.75045  1.0000
  O   O236      1.0  0.25723  0.86204  0.75045  1.0000
  H   H958      1.0  0.27257  0.87761  0.75045  1.0000
  H   H959      1.0  0.24189  0.87761  0.81307  1.0000
  O   O237      1.0  0.25723  0.86204  0.81307  1.0000
  H   H960      1.0  0.27257  0.87761  0.81307  1.0000
  H   H961      1.0  0.30259  0.13796  0.18693  1.0000
  O   O238      1.0  0.31792  0.12239  0.18693  1.0000
  H   H962      1.0  0.33326  0.13796  0.18693  1.0000
  H   H963      1.0  0.30259  0.13796  0.24955  1.0000
  O   O239      1.0  0.31792  0.12239  0.24955  1.0000
  H   H964      1.0  0.33326  0.13796  0.24955  1.0000
  H   H965      1.0  0.30259  0.13796  0.31216  1.0000
  O   O240      1.0  0.31792  0.12239  0.31216  1.0000
  H   H966      1.0  0.33326  0.13796  0.31216  1.0000
  H   H967      1.0  0.30259  0.13796  0.37477  1.0000
  O   O241      1.0  0.31792  0.12239  0.37477  1.0000
  H   H968      1.0  0.33326  0.13796  0.37477  1.0000
  H   H969      1.0  0.30259  0.13796  0.43739  1.0000
  O   O242      1.0  0.31792  0.12239  0.43739  1.0000
  H   H970      1.0  0.33326  0.13796  0.43739  1.0000
  H   H971      1.0  0.30259  0.13796  0.50000  1.0000
  O   O243      1.0  0.31792  0.12239  0.50000  1.0000
  H   H972      1.0  0.33326  0.13796  0.50000  1.0000
  H   H973      1.0  0.30259  0.13796  0.56261  1.0000
  O   O244      1.0  0.31792  0.12239  0.56261  1.0000
  H   H974      1.0  0.33326  0.13796  0.56261  1.0000
  H   H975      1.0  0.30259  0.13796  0.62523  1.0000
  O   O245      1.0  0.31792  0.12239  0.62523  1.0000
  H   H976      1.0  0.33326  0.13796  0.62523  1.0000
  H   H977      1.0  0.30259  0.13796  0.68784  1.0000
  O   O246      1.0  0.31792  0.12239  0.68784  1.0000
  H   H978      1.0  0.33326  0.13796  0.68784  1.0000
  H   H979      1.0  0.30259  0.13796  0.75045  1.0000
  O   O247      1.0  0.31792  0.12239  0.75045  1.0000
  H   H980      1.0  0.33326  0.13796  0.75045  1.0000
  H   H981      1.0  0.30259  0.13796  0.81307  1.0000
  O   O248      1.0  0.31792  0.12239  0.81307  1.0000
  H   H982      1.0  0.33326  0.13796  0.81307  1.0000
  H   H983      1.0  0.30259  0.19960  0.12432  1.0000
  O   O249      1.0  0.31792  0.18402  0.12432  1.0000
  H   H984      1.0  0.33326  0.19960  0.12432  1.0000
  H   H985      1.0  0.30259  0.19960  0.18693  1.0000
  O   O250      1.0  0.31792  0.18402  0.18693  1.0000
  H   H986      1.0  0.33326  0.19960  0.18693  1.0000
  H   H987      1.0  0.30259  0.19960  0.24955  1.0000
  O   O251      1.0  0.31792  0.18402  0.24955  1.0000
  H   H988      1.0  0.33326  0.19960  0.24955  1.0000
  H   H989      1.0  0.30259  0.19960  0.81307  1.0000
  O   O252      1.0  0.31792  0.18402  0.81307  1.0000
  H   H990      1.0  0.33326  0.19960  0.81307  1.0000
  H   H991      1.0  0.30259  0.19960  0.87568  1.0000
  O   O253      1.0  0.31792  0.18402  0.87568  1.0000
  H   H992      1.0  0.33326  0.19960  0.87568  1.0000
  H   H993      1.0  0.30259  0.26124  0.12432  1.0000
  O   O254      1.0  0.31792  0.24566  0.12432  1.0000
  H   H994      1.0  0.33326  0.26124  0.12432  1.0000
  H   H995      1.0  0.30259  0.26124  0.18693  1.0000
  O   O255      1.0  0.31792  0.24566  0.18693  1.0000
  H   H996      1.0  0.33326  0.26124  0.18693  1.0000
  H   H997      1.0  0.30259  0.26124  0.81307  1.0000
  O   O256      1.0  0.31792  0.24566  0.81307  1.0000
  H   H998      1.0  0.33326  0.26124  0.81307  1.0000
  H   H999      1.0  0.30259  0.26124  0.87568  1.0000
  O   O257      1.0  0.31792  0.24566  0.87568  1.0000
  H   H1000     1.0  0.33326  0.26124  0.87568  1.0000
  H   H1001     1.0  0.30259  0.32287  0.12432  1.0000
  O   O258      1.0  0.31792  0.30730  0.12432  1.0000
  H   H1002     1.0  0.33326  0.32287  0.12432  1.0000
  H   H1003     1.0  0.30259  0.32287  0.87568  1.0000
  O   O259      1.0  0.31792  0.30730  0.87568  1.0000
  H   H1004     1.0  0.33326  0.32287  0.87568  1.0000
  H   H1005     1.0  0.30259  0.38451  0.12432  1.0000
  O   O260      1.0  0.31792  0.36894  0.12432  1.0000
  H   H1006     1.0  0.33326  0.38451  0.12432  1.0000
  H   H1007     1.0  0.30259  0.38451  0.87568  1.0000
  O   O261      1.0  0.31792  0.36894  0.87568  1.0000
  H   H1008     1.0  0.33326  0.38451  0.87568  1.0000
  H   H1009     1.0  0.30259  0.44615  0.12432  1.0000
  O   O262      1.0  0.31792  0.43057  0.12432  1.0000
  H   H1010     1.0  0.33326  0.44615  0.12432  1.0000
  H   H1011     1.0  0.30259  0.44615  0.87568  1.0000
  O   O263      1.0  0.31792  0.43057  0.87568  1.0000
  H   H1012     1.0  0.33326  0.44615  0.87568  1.0000
  H   H1013     1.0  0.30259  0.50779  0.12432  1.0000
  O   O264      1.0  0.31792  0.49221  0.12432  1.0000
  H   H1014     1.0  0.33326  0.50779  0.12432  1.0000
  H   H1015     1.0  0.30259  0.50779  0.87568  1.0000
  O   O265      1.0  0.31792  0.49221  0.87568  1.0000
  H   H1016     1.0  0.33326  0.50779  0.87568  1.0000
  H   H1017     1.0  0.30259  0.56943  0.12432  1.0000
  O   O266      1.0  0.31792  0.55385  0.12432  1.0000
  H   H1018     1.0  0.33326  0.56943  0.12432  1.0000
  H   H1019     1.0  0.30259  0.56943  0.87568  1.0000
  O   O267      1.0  0.31792  0.55385  0.87568  1.0000
  H   H1020     1.0  0.33326  0.56943  0.87568  1.0000
  H   H1021     1.0  0.30259  0.63106  0.12432  1.0000
  O   O268      1.0  0.31792  0.61549  0.12432  1.0000
  H   H1022     1.0  0.33326  0.63106  0.12432  1.0000
  H   H1023     1.0  0.30259  0.63106  0.87568  1.0000
  O   O269      1.0  0.31792  0.61549  0.87568  1.0000
  H   H1024     1.0  0.33326  0.63106  0.87568  1.0000
  H   H1025     1.0  0.30259  0.69270  0.12432  1.0000
  O   O270      1.0  0.31792  0.67713  0.12432  1.0000
  H   H1026     1.0  0.33326  0.69270  0.12432  1.0000
  H   H1027     1.0  0.30259  0.69270  0.87568  1.0000
  O   O271      1.0  0.31792  0.67713  0.87568  1.0000
  H   H1028     1.0  0.33326  0.69270  0.87568  1.0000
  H   H1029     1.0  0.30259  0.75434  0.12432  1.0000
  O   O272      1.0  0.31792  0.73876  0.12432  1.0000
  H   H1030     1.0  0.33326  0.75434  0.12432  1.0000
  H   H1031     1.0  0.30259  0.75434  0.18693  1.0000
  O   O273      1.0  0.31792  0.73876  0.18693  1.0000
  H   H1032     1.0  0.33326  0.75434  0.18693  1.0000
  H   H1033     1.0  0.30259  0.75434  0.81307  1.0000
  O   O274      1.0  0.31792  0.73876  0.81307  1.0000
  H   H1034     1.0  0.33326  0.75434  0.81307  1.0000
  H   H1035     1.0  0.30259  0.75434  0.87568  1.0000
  O   O275      1.0  0.31792  0.73876  0.87568  1.0000
  H   H1036     1.0  0.33326  0.75434  0.87568  1.0000
  H   H1037     1.0  0.30259  0.81598  0.12432  1.0000
  O   O276      1.0  0.31792  0.80040  0.12432  1.0000
  H   H1038     1.0  0.33326  0.81598  0.12432  1.0000
  H   H1039     1.0  0.30259  0.81598  0.18693  1.0000
  O   O277      1.0  0.31792  0.80040  0.18693  1.0000
  H   H1040     1.0  0.33326  0.81598  0.18693  1.0000
  H   H1041     1.0  0.30259  0.81598  0.24955  1.0000
  O   O278      1.0  0.31792  0.80040  0.24955  1.0000
  H   H1042     1.0  0.33326  0.81598  0.24955  1.0000
  H   H1043     1.0  0.30259  0.81598  0.81307  1.0000
  O   O279      1.0  0.31792  0.80040  0.81307  1.0000
  H   H1044     1.0  0.33326  0.81598  0.81307  1.0000
  H   H1045     1.0  0.30259  0.81598  0.87568  1.0000
  O   O280      1.0  0.31792  0.80040  0.87568  1.0000
  H   H1046     1.0  0.33326  0.81598  0.87568  1.0000
  H   H1047     1.0  0.30259  0.87761  0.18693  1.0000
  O   O281      1.0  0.31792  0.86204  0.18693  1.0000
  H   H1048     1.0  0.33326  0.87761  0.18693  1.0000
  H   H1049     1.0  0.30259  0.87761  0.24955  1.0000
  O   O282      1.0  0.31792  0.86204  0.24955  1.0000
  H   H1050     1.0  0.33326  0.87761  0.24955  1.0000
  H   H1051     1.0  0.30259  0.87761  0.31216  1.0000
  O   O283      1.0  0.31792  0.86204  0.31216  1.0000
  H   H1052     1.0  0.33326  0.87761  0.31216  1.0000
  H   H1053     1.0  0.30259  0.87761  0.37477  1.0000
  O   O284      1.0  0.31792  0.86204  0.37477  1.0000
  H   H1054     1.0  0.33326  0.87761  0.37477  1.0000
  H   H1055     1.0  0.30259  0.87761  0.43739  1.0000
  O   O285      1.0  0.31792  0.86204  0.43739  1.0000
  H   H1056     1.0  0.33326  0.87761  0.43739  1.0000
  H   H1057     1.0  0.30259  0.87761  0.50000  1.0000
  O   O286      1.0  0.31792  0.86204  0.50000  1.0000
  H   H1058     1.0  0.33326  0.87761  0.50000  1.0000
  H   H1059     1.0  0.30259  0.87761  0.56261  1.0000
  O   O287      1.0  0.31792  0.86204  0.56261  1.0000
  H   H1060     1.0  0.33326  0.87761  0.56261  1.0000
  H   H1061     1.0  0.30259  0.87761  0.62523  1.0000
  O   O288      1.0  0.31792  0.86204  0.62523  1.0000
  H   H1062     1.0  0.33326  0.87761  0.62523  1.0000
  H   H1063     1.0  0.30259  0.87761  0.68784  1.0000
  O   O289      1.0  0.31792  0.86204  0.68784  1.0000
  H   H1064     1.0  0.33326  0.87761  0.68784  1.0000
  H   H1065     1.0  0.30259  0.87761  0.75045  1.0000
  O   O290      1.0  0.31792  0.86204  0.75045  1.0000
  H   H1066     1.0  0.33326  0.87761  0.75045  1.0000
  H   H1067     1.0  0.30259  0.87761  0.81307  1.0000
  O   O291      1.0  0.31792  0.86204  0.81307  1.0000
  H   H1068     1.0  0.33326  0.87761  0.81307  1.0000
  H   H1069     1.0  0.36328  0.13796  0.18693  1.0000
  O   O292      1.0  0.37862  0.12239  0.18693  1.0000
  H   H1070     1.0  0.39395  0.13796  0.18693  1.0000
  H   H1071     1.0  0.36328  0.13796  0.24955  1.0000
  O   O293      1.0  0.37862  0.12239  0.24955  1.0000
  H   H1072     1.0  0.39395  0.13796  0.24955  1.0000
  H   H1073     1.0  0.36328  0.13796  0.31216  1.0000
  O   O294      1.0  0.37862  0.12239  0.31216  1.0000
  H   H1074     1.0  0.39395  0.13796  0.31216  1.0000
  H   H1075     1.0  0.36328  0.13796  0.37477  1.0000
  O   O295      1.0  0.37862  0.12239  0.37477  1.0000
  H   H1076     1.0  0.39395  0.13796  0.37477  1.0000
  H   H1077     1.0  0.36328  0.13796  0.43739  1.0000
  O   O296      1.0  0.37862  0.12239  0.43739  1.0000
  H   H1078     1.0  0.39395  0.13796  0.43739  1.0000
  H   H1079     1.0  0.36328  0.13796  0.50000  1.0000
  O   O297      1.0  0.37862  0.12239  0.50000  1.0000
  H   H1080     1.0  0.39395  0.13796  0.50000  1.0000
  H   H1081     1.0  0.36328  0.13796  0.56261  1.0000
  O   O298      1.0  0.37862  0.12239  0.56261  1.0000
  H   H1082     1.0  0.39395  0.13796  0.56261  1.0000
  H   H1083     1.0  0.36328  0.13796  0.62523  1.0000
  O   O299      1.0  0.37862  0.12239  0.62523  1.0000
  H   H1084     1.0  0.39395  0.13796  0.62523  1.0000
  H   H1085     1.0  0.36328  0.13796  0.68784  1.0000
  O   O300      1.0  0.37862  0.12239  0.68784  1.0000
  H   H1086     1.0  0.39395  0.13796  0.68784  1.0000
  H   H1087     1.0  0.36328  0.13796  0.75045  1.0000
  O   O301      1.0  0.37862  0.12239  0.75045  1.0000
  H   H1088     1.0  0.39395  0.13796  0.75045  1.0000
  H   H1089     1.0  0.36328  0.13796  0.81307  1.0000
  O   O302      1.0  0.37862  0.12239  0.81307  1.0000
  H   H1090     1.0  0.39395  0.13796  0.81307  1.0000
  H   H1091     1.0  0.36328  0.19960  0.12432  1.0000
  O   O303      1.0  0.37862  0.18402  0.12432  1.0000
  H   H1092     1.0  0.39395  0.19960  0.12432  1.0000
  H   H1093     1.0  0.36328  0.19960  0.18693  1.0000
  O   O304      1.0  0.37862  0.18402  0.18693  1.0000
  H   H1094     1.0  0.39395  0.19960  0.18693  1.0000
  H   H1095     1.0  0.36328  0.19960  0.24955  1.0000
  O   O305      1.0  0.37862  0.18402  0.24955  1.0000
  H   H1096     1.0  0.39395  0.19960  0.24955  1.0000
  H   H1097     1.0  0.36328  0.19960  0.75045  1.0000
  O   O306      1.0  0.37862  0.18402  0.75045  1.0000
  H   H1098     1.0  0.39395  0.19960  0.75045  1.0000
  H   H1099     1.0  0.36328  0.19960  0.81307  1.0000
  O   O307      1.0  0.37862  0.18402  0.81307  1.0000
  H   H1100     1.0  0.39395  0.19960  0.81307  1.0000
  H   H1101     1.0  0.36328  0.19960  0.87568  1.0000
  O   O308      1.0  0.37862  0.18402  0.87568  1.0000
  H   H1102     1.0  0.39395  0.19960  0.87568  1.0000
  H   H1103     1.0  0.36328  0.26124  0.12432  1.0000
  O   O309      1.0  0.37862  0.24566  0.12432  1.0000
  H   H1104     1.0  0.39395  0.26124  0.12432  1.0000
  H   H1105     1.0  0.36328  0.26124  0.18693  1.0000
  O   O310      1.0  0.37862  0.24566  0.18693  1.0000
  H   H1106     1.0  0.39395  0.26124  0.18693  1.0000
  H   H1107     1.0  0.36328  0.26124  0.75045  1.0000
  O   O311      1.0  0.37862  0.24566  0.75045  1.0000
  H   H1108     1.0  0.39395  0.26124  0.75045  1.0000
  H   H1109     1.0  0.36328  0.26124  0.81307  1.0000
  O   O312      1.0  0.37862  0.24566  0.81307  1.0000
  H   H1110     1.0  0.39395  0.26124  0.81307  1.0000
  H   H1111     1.0  0.36328  0.26124  0.87568  1.0000
  O   O313      1.0  0.37862  0.24566  0.87568  1.0000
  H   H1112     1.0  0.39395  0.26124  0.87568  1.0000
  H   H1113     1.0  0.36328  0.32287  0.12432  1.0000
  O   O314      1.0  0.37862  0.30730  0.12432  1.0000
  H   H1114     1.0  0.39395  0.32287  0.12432  1.0000
  H   H1115     1.0  0.36328  0.32287  0.87568  1.0000
  O   O315      1.0  0.37862  0.30730  0.87568  1.0000
  H   H1116     1.0  0.39395  0.32287  0.87568  1.0000
  H   H1117     1.0  0.36328  0.38451  0.12432  1.0000
  O   O316      1.0  0.37862  0.36894  0.12432  1.0000
  H   H1118     1.0  0.39395  0.38451  0.12432  1.0000
  H   H1119     1.0  0.36328  0.38451  0.87568  1.0000
  O   O317      1.0  0.37862  0.36894  0.87568  1.0000
  H   H1120     1.0  0.39395  0.38451  0.87568  1.0000
  H   H1121     1.0  0.36328  0.44615  0.12432  1.0000
  O   O318      1.0  0.37862  0.43057  0.12432  1.0000
  H   H1122     1.0  0.39395  0.44615  0.12432  1.0000
  H   H1123     1.0  0.36328  0.44615  0.87568  1.0000
  O   O319      1.0  0.37862  0.43057  0.87568  1.0000
  H   H1124     1.0  0.39395  0.44615  0.87568  1.0000
  H   H1125     1.0  0.36328  0.50779  0.12432  1.0000
  O   O320      1.0  0.37862  0.49221  0.12432  1.0000
  H   H1126     1.0  0.39395  0.50779  0.12432  1.0000
  H   H1127     1.0  0.36328  0.50779  0.87568  1.0000
  O   O321      1.0  0.37862  0.49221  0.87568  1.0000
  H   H1128     1.0  0.39395  0.50779  0.87568  1.0000
  H   H1129     1.0  0.36328  0.56943  0.12432  1.0000
  O   O322      1.0  0.37862  0.55385  0.12432  1.0000
  H   H1130     1.0  0.39395  0.56943  0.12432  1.0000
  H   H1131     1.0  0.36328  0.56943  0.87568  1.0000
  O   O323      1.0  0.37862  0.55385  0.87568  1.0000
  H   H1132     1.0  0.39395  0.56943  0.87568  1.0000
  H   H1133     1.0  0.36328  0.63106  0.12432  1.0000
  O   O324      1.0  0.37862  0.61549  0.12432  1.0000
  H   H1134     1.0  0.39395  0.63106  0.12432  1.0000
  H   H1135     1.0  0.36328  0.63106  0.87568  1.0000
  O   O325      1.0  0.37862  0.61549  0.87568  1.0000
  H   H1136     1.0  0.39395  0.63106  0.87568  1.0000
  H   H1137     1.0  0.36328  0.69270  0.12432  1.0000
  O   O326      1.0  0.37862  0.67713  0.12432  1.0000
  H   H1138     1.0  0.39395  0.69270  0.12432  1.0000
  H   H1139     1.0  0.36328  0.69270  0.87568  1.0000
  O   O327      1.0  0.37862  0.67713  0.87568  1.0000
  H   H1140     1.0  0.39395  0.69270  0.87568  1.0000
  H   H1141     1.0  0.36328  0.75434  0.12432  1.0000
  O   O328      1.0  0.37862  0.73876  0.12432  1.0000
  H   H1142     1.0  0.39395  0.75434  0.12432  1.0000
  H   H1143     1.0  0.36328  0.75434  0.18693  1.0000
  O   O329      1.0  0.37862  0.73876  0.18693  1.0000
  H   H1144     1.0  0.39395  0.75434  0.18693  1.0000
  H   H1145     1.0  0.36328  0.75434  0.75045  1.0000
  O   O330      1.0  0.37862  0.73876  0.75045  1.0000
  H   H1146     1.0  0.39395  0.75434  0.75045  1.0000
  H   H1147     1.0  0.36328  0.75434  0.81307  1.0000
  O   O331      1.0  0.37862  0.73876  0.81307  1.0000
  H   H1148     1.0  0.39395  0.75434  0.81307  1.0000
  H   H1149     1.0  0.36328  0.75434  0.87568  1.0000
  O   O332      1.0  0.37862  0.73876  0.87568  1.0000
  H   H1150     1.0  0.39395  0.75434  0.87568  1.0000
  H   H1151     1.0  0.36328  0.81598  0.12432  1.0000
  O   O333      1.0  0.37862  0.80040  0.12432  1.0000
  H   H1152     1.0  0.39395  0.81598  0.12432  1.0000
  H   H1153     1.0  0.36328  0.81598  0.18693  1.0000
  O   O334      1.0  0.37862  0.80040  0.18693  1.0000
  H   H1154     1.0  0.39395  0.81598  0.18693  1.0000
  H   H1155     1.0  0.36328  0.81598  0.24955  1.0000
  O   O335      1.0  0.37862  0.80040  0.24955  1.0000
  H   H1156     1.0  0.39395  0.81598  0.24955  1.0000
  H   H1157     1.0  0.36328  0.81598  0.75045  1.0000
  O   O336      1.0  0.37862  0.80040  0.75045  1.0000
  H   H1158     1.0  0.39395  0.81598  0.75045  1.0000
  H   H1159     1.0  0.36328  0.81598  0.81307  1.0000
  O   O337      1.0  0.37862  0.80040  0.81307  1.0000
  H   H1160     1.0  0.39395  0.81598  0.81307  1.0000
  H   H1161     1.0  0.36328  0.81598  0.87568  1.0000
  O   O338      1.0  0.37862  0.80040  0.87568  1.0000
  H   H1162     1.0  0.39395  0.81598  0.87568  1.0000
  H   H1163     1.0  0.36328  0.87761  0.18693  1.0000
  O   O339      1.0  0.37862  0.86204  0.18693  1.0000
  H   H1164     1.0  0.39395  0.87761  0.18693  1.0000
  H   H1165     1.0  0.36328  0.87761  0.24955  1.0000
  O   O340      1.0  0.37862  0.86204  0.24955  1.0000
  H   H1166     1.0  0.39395  0.87761  0.24955  1.0000
  H   H1167     1.0  0.36328  0.87761  0.31216  1.0000
  O   O341      1.0  0.37862  0.86204  0.31216  1.0000
  H   H1168     1.0  0.39395  0.87761  0.31216  1.0000
  H   H1169     1.0  0.36328  0.87761  0.37477  1.0000
  O   O342      1.0  0.37862  0.86204  0.37477  1.0000
  H   H1170     1.0  0.39395  0.87761  0.37477  1.0000
  H   H1171     1.0  0.36328  0.87761  0.43739  1.0000
  O   O343      1.0  0.37862  0.86204  0.43739  1.0000
  H   H1172     1.0  0.39395  0.87761  0.43739  1.0000
  H   H1173     1.0  0.36328  0.87761  0.50000  1.0000
  O   O344      1.0  0.37862  0.86204  0.50000  1.0000
  H   H1174     1.0  0.39395  0.87761  0.50000  1.0000
  H   H1175     1.0  0.36328  0.87761  0.56261  1.0000
  O   O345      1.0  0.37862  0.86204  0.56261  1.0000
  H   H1176     1.0  0.39395  0.87761  0.56261  1.0000
  H   H1177     1.0  0.36328  0.87761  0.62523  1.0000
  O   O346      1.0  0.37862  0.86204  0.62523  1.0000
  H   H1178     1.0  0.39395  0.87761  0.62523  1.0000
  H   H1179     1.0  0.36328  0.87761  0.68784  1.0000
  O   O347      1.0  0.37862  0.86204  0.68784  1.0000
  H   H1180     1.0  0.39395  0.87761  0.68784  1.0000
  H   H1181     1.0  0.36328  0.87761  0.75045  1.0000
  O   O348      1.0  0.37862  0.86204  0.75045  1.0000
  H   H1182     1.0  0.39395  0.87761  0.75045  1.0000
  H   H1183     1.0  0.36328  0.87761  0.81307  1.0000
  O   O349      1.0  0.37862  0.86204  0.81307  1.0000
  H   H1184     1.0  0.39395  0.87761  0.81307  1.0000
  H   H1185     1.0  0.42397  0.13796  0.18693  1.0000
  O   O350      1.0  0.43931  0.12239  0.18693  1.0000
  H   H1186     1.0  0.45465  0.13796  0.18693  1.0000
  H   H1187     1.0  0.42397  0.13796  0.24955  1.0000
  O   O351      1.0  0.43931  0.12239  0.24955  1.0000
  H   H1188     1.0  0.45465  0.13796  0.24955  1.0000
  H   H1189     1.0  0.42397  0.13796  0.31216  1.0000
  O   O352      1.0  0.43931  0.12239  0.31216  1.0000
  H   H1190     1.0  0.45465  0.13796  0.31216  1.0000
  H   H1191     1.0  0.42397  0.13796  0.37477  1.0000
  O   O353      1.0  0.43931  0.12239  0.37477  1.0000
  H   H1192     1.0  0.45465  0.13796  0.37477  1.0000
  H   H1193     1.0  0.42397  0.13796  0.43739  1.0000
  O   O354      1.0  0.43931  0.12239  0.43739  1.0000
  H   H1194     1.0  0.45465  0.13796  0.43739  1.0000
  H   H1195     1.0  0.42397  0.13796  0.50000  1.0000
  O   O355      1.0  0.43931  0.12239  0.50000  1.0000
  H   H1196     1.0  0.45465  0.13796  0.50000  1.0000
  H   H1197     1.0  0.42397  0.13796  0.56261  1.0000
  O   O356      1.0  0.43931  0.12239  0.56261  1.0000
  H   H1198     1.0  0.45465  0.13796  0.56261  1.0000
  H   H1199     1.0  0.42397  0.13796  0.62523  1.0000
  O   O357      1.0  0.43931  0.12239  0.62523  1.0000
  H   H1200     1.0  0.45465  0.13796  0.62523  1.0000
  H   H1201     1.0  0.42397  0.13796  0.68784  1.0000
  O   O358      1.0  0.43931  0.12239  0.68784  1.0000
  H   H1202     1.0  0.45465  0.13796  0.68784  1.0000
  H   H1203     1.0  0.42397  0.13796  0.75045  1.0000
  O   O359      1.0  0.43931  0.12239  0.75045  1.0000
  H   H1204     1.0  0.45465  0.13796  0.75045  1.0000
  H   H1205     1.0  0.42397  0.13796  0.81307  1.0000
  O   O360      1.0  0.43931  0.12239  0.81307  1.0000
  H   H1206     1.0  0.45465  0.13796  0.81307  1.0000
  H   H1207     1.0  0.42397  0.19960  0.12432  1.0000
  O   O361      1.0  0.43931  0.18402  0.12432  1.0000
  H   H1208     1.0  0.45465  0.19960  0.12432  1.0000
  H   H1209     1.0  0.42397  0.19960  0.18693  1.0000
  O   O362      1.0  0.43931  0.18402  0.18693  1.0000
  H   H1210     1.0  0.45465  0.19960  0.18693  1.0000
  H   H1211     1.0  0.42397  0.19960  0.81307  1.0000
  O   O363      1.0  0.43931  0.18402  0.81307  1.0000
  H   H1212     1.0  0.45465  0.19960  0.81307  1.0000
  H   H1213     1.0  0.42397  0.19960  0.87568  1.0000
  O   O364      1.0  0.43931  0.18402  0.87568  1.0000
  H   H1214     1.0  0.45465  0.19960  0.87568  1.0000
  H   H1215     1.0  0.42397  0.26124  0.12432  1.0000
  O   O365      1.0  0.43931  0.24566  0.12432  1.0000
  H   H1216     1.0  0.45465  0.26124  0.12432  1.0000
  H   H1217     1.0  0.42397  0.26124  0.87568  1.0000
  O   O366      1.0  0.43931  0.24566  0.87568  1.0000
  H   H1218     1.0  0.45465  0.26124  0.87568  1.0000
  H   H1219     1.0  0.42397  0.32287  0.12432  1.0000
  O   O367      1.0  0.43931  0.30730  0.12432  1.0000
  H   H1220     1.0  0.45465  0.32287  0.12432  1.0000
  H   H1221     1.0  0.42397  0.32287  0.87568  1.0000
  O   O368      1.0  0.43931  0.30730  0.87568  1.0000
  H   H1222     1.0  0.45465  0.32287  0.87568  1.0000
  H   H1223     1.0  0.42397  0.38451  0.12432  1.0000
  O   O369      1.0  0.43931  0.36894  0.12432  1.0000
  H   H1224     1.0  0.45465  0.38451  0.12432  1.0000
  H   H1225     1.0  0.42397  0.38451  0.87568  1.0000
  O   O370      1.0  0.43931  0.36894  0.87568  1.0000
  H   H1226     1.0  0.45465  0.38451  0.87568  1.0000
  H   H1227     1.0  0.42397  0.44615  0.12432  1.0000
  O   O371      1.0  0.43931  0.43057  0.12432  1.0000
  H   H1228     1.0  0.45465  0.44615  0.12432  1.0000
  H   H1229     1.0  0.42397  0.44615  0.87568  1.0000
  O   O372      1.0  0.43931  0.43057  0.87568  1.0000
  H   H1230     1.0  0.45465  0.44615  0.87568  1.0000
  H   H1231     1.0  0.42397  0.50779  0.12432  1.0000
  O   O373      1.0  0.43931  0.49221  0.12432  1.0000
  H   H1232     1.0  0.45465  0.50779  0.12432  1.0000
  H   H1233     1.0  0.42397  0.50779  0.87568  1.0000
  O   O374      1.0  0.43931  0.49221  0.87568  1.0000
  H   H1234     1.0  0.45465  0.50779  0.87568  1.0000
  H   H1235     1.0  0.42397  0.56943  0.12432  1.0000
  O   O375      1.0  0.43931  0.55385  0.12432  1.0000
  H   H1236     1.0  0.45465  0.56943  0.12432  1.0000
  H   H1237     1.0  0.42397  0.56943  0.87568  1.0000
  O   O376      1.0  0.43931  0.55385  0.87568  1.0000
  H   H1238     1.0  0.45465  0.56943  0.87568  1.0000
  H   H1239     1.0  0.42397  0.63106  0.12432  1.0000
  O   O377      1.0  0.43931  0.61549  0.12432  1.0000
  H   H1240     1.0  0.45465  0.63106  0.12432  1.0000
  H   H1241     1.0  0.42397  0.63106  0.87568  1.0000
  O   O378      1.0  0.43931  0.61549  0.87568  1.0000
  H   H1242     1.0  0.45465  0.63106  0.87568  1.0000
  H   H1243     1.0  0.42397  0.69270  0.12432  1.0000
  O   O379      1.0  0.43931  0.67713  0.12432  1.0000
  H   H1244     1.0  0.45465  0.69270  0.12432  1.0000
  H   H1245     1.0  0.42397  0.69270  0.87568  1.0000
  O   O380      1.0  0.43931  0.67713  0.87568  1.0000
  H   H1246     1.0  0.45465  0.69270  0.87568  1.0000
  H   H1247     1.0  0.42397  0.75434  0.12432  1.0000
  O   O381      1.0  0.43931  0.73876  0.12432  1.0000
  H   H1248     1.0  0.45465  0.75434  0.12432  1.0000
  H   H1249     1.0  0.42397  0.75434  0.87568  1.0000
  O   O382      1.0  0.43931  0.73876  0.87568  1.0000
  H   H1250     1.0  0.45465  0.75434  0.87568  1.0000
  H   H1251     1.0  0.42397  0.81598  0.12432  1.0000
  O   O383      1.0  0.43931  0.80040  0.12432  1.0000
  H   H1252     1.0  0.45465  0.81598  0.12432  1.0000
  H   H1253     1.0  0.42397  0.81598  0.18693  1.0000
  O   O384      1.0  0.43931  0.80040  0.18693  1.0000
  H   H1254     1.0  0.45465  0.81598  0.18693  1.0000
  H   H1255     1.0  0.42397  0.81598  0.81307  1.0000
  O   O385      1.0  0.43931  0.80040  0.81307  1.0000
  H   H1256     1.0  0.45465  0.81598  0.81307  1.0000
  H   H1257     1.0  0.42397  0.81598  0.87568  1.0000
  O   O386      1.0  0.43931  0.80040  0.87568  1.0000
  H   H1258     1.0  0.45465  0.81598  0.87568  1.0000
  H   H1259     1.0  0.42397  0.87761  0.18693  1.0000
  O   O387      1.0  0.43931  0.86204  0.18693  1.0000
  H   H1260     1.0  0.45465  0.87761  0.18693  1.0000
  H   H1261     1.0  0.42397  0.87761  0.24955  1.0000
  O   O388      1.0  0.43931  0.86204  0.24955  1.0000
  H   H1262     1.0  0.45465  0.87761  0.24955  1.0000
  H   H1263     1.0  0.42397  0.87761  0.31216  1.0000
  O   O389      1.0  0.43931  0.86204  0.31216  1.0000
  H   H1264     1.0  0.45465  0.87761  0.31216  1.0000
  H   H1265     1.0  0.42397  0.87761  0.37477  1.0000
  O   O390      1.0  0.43931  0.86204  0.37477  1.0000
  H   H1266     1.0  0.45465  0.87761  0.37477  1.0000
  H   H1267     1.0  0.42397  0.87761  0.43739  1.0000
  O   O391      1.0  0.43931  0.86204  0.43739  1.0000
  H   H1268     1.0  0.45465  0.87761  0.43739  1.0000
  H   H1269     1.0  0.42397  0.87761  0.50000  1.0000
  O   O392      1.0  0.43931  0.86204  0.50000  1.0000
  H   H1270     1.0  0.45465  0.87761  0.50000  1.0000
  H   H1271     1.0  0.42397  0.87761  0.56261  1.0000
  O   O393      1.0  0.43931  0.86204  0.56261  1.0000
  H   H1272     1.0  0.45465  0.87761  0.56261  1.0000
  H   H1273     1.0  0.42397  0.87761  0.62523  1.0000
  O   O394      1.0  0.43931  0.86204  0.62523  1.0000
  H   H1274     1.0  0.45465  0.87761  0.62523  1.0000
  H   H1275     1.0  0.42397  0.87761  0.68784  1.0000
  O   O395      1.0  0.43931  0.86204  0.68784  1.0000
  H   H1276     1.0  0.45465  0.87761  0.68784  1.0000
  H   H1277     1.0  0.42397  0.87761  0.75045  1.0000
  O   O396      1.0  0.43931  0.86204  0.75045  1.0000
  H   H1278     1.0  0.45465  0.87761  0.75045  1.0000
  H   H1279     1.0  0.42397  0.87761  0.81307  1.0000
  O   O397      1.0  0.43931  0.86204  0.81307  1.0000
  H   H1280     1.0  0.45465  0.87761  0.81307  1.0000
  H   H1281     1.0  0.48466  0.13796  0.18693  1.0000
  O   O398      1.0  0.50000  0.12239  0.18693  1.0000
  H   H1282     1.0  0.51534  0.13796  0.18693  1.0000
  H   H1283     1.0  0.48466  0.13796  0.24955  1.0000
  O   O399      1.0  0.50000  0.12239  0.24955  1.0000
  H   H1284     1.0  0.51534  0.13796  0.24955  1.0000
  H   H1285     1.0  0.48466  0.13796  0.31216  1.0000
  O   O400      1.0  0.50000  0.12239  0.31216  1.0000
  H   H1286     1.0  0.51534  0.13796  0.31216  1.0000
  H   H1287     1.0  0.48466  0.13796  0.37477  1.0000
  O   O401      1.0  0.50000  0.12239  0.37477  1.0000
  H   H1288     1.0  0.51534  0.13796  0.37477  1.0000
  H   H1289     1.0  0.48466  0.13796  0.43739  1.0000
  O   O402      1.0  0.50000  0.12239  0.43739  1.0000
  H   H1290     1.0  0.51534  0.13796  0.43739  1.0000
  H   H1291     1.0  0.48466  0.13796  0.50000  1.0000
  O   O403      1.0  0.50000  0.12239  0.50000  1.0000
  H   H1292     1.0  0.51534  0.13796  0.50000  1.0000
  H   H1293     1.0  0.48466  0.13796  0.56261  1.0000
  O   O404      1.0  0.50000  0.12239  0.56261  1.0000
  H   H1294     1.0  0.51534  0.13796  0.56261  1.0000
  H   H1295     1.0  0.48466  0.13796  0.62523  1.0000
  O   O405      1.0  0.50000  0.12239  0.62523  1.0000
  H   H1296     1.0  0.51534  0.13796  0.62523  1.0000
  H   H1297     1.0  0.48466  0.13796  0.68784  1.0000
  O   O406      1.0  0.50000  0.12239  0.68784  1.0000
  H   H1298     1.0  0.51534  0.13796  0.68784  1.0000
  H   H1299     1.0  0.48466  0.13796  0.75045  1.0000
  O   O407      1.0  0.50000  0.12239  0.75045  1.0000
  H   H1300     1.0  0.51534  0.13796  0.75045  1.0000
  H   H1301     1.0  0.48466  0.13796  0.81307  1.0000
  O   O408      1.0  0.50000  0.12239  0.81307  1.0000
  H   H1302     1.0  0.51534  0.13796  0.81307  1.0000
  H   H1303     1.0  0.48466  0.19960  0.12432  1.0000
  O   O409      1.0  0.50000  0.18402  0.12432  1.0000
  H   H1304     1.0  0.51534  0.19960  0.12432  1.0000
  H   H1305     1.0  0.48466  0.19960  0.18693  1.0000
  O   O410      1.0  0.50000  0.18402  0.18693  1.0000
  H   H1306     1.0  0.51534  0.19960  0.18693  1.0000
  H   H1307     1.0  0.48466  0.19960  0.24955  1.0000
  O   O411      1.0  0.50000  0.18402  0.24955  1.0000
  H   H1308     1.0  0.51534  0.19960  0.24955  1.0000
  H   H1309     1.0  0.48466  0.19960  0.75045  1.0000
  O   O412      1.0  0.50000  0.18402  0.75045  1.0000
  H   H1310     1.0  0.51534  0.19960  0.75045  1.0000
  H   H1311     1.0  0.48466  0.19960  0.81307  1.0000
  O   O413      1.0  0.50000  0.18402  0.81307  1.0000
  H   H1312     1.0  0.51534  0.19960  0.81307  1.0000
  H   H1313     1.0  0.48466  0.19960  0.87568  1.0000
  O   O414      1.0  0.50000  0.18402  0.87568  1.0000
  H   H1314     1.0  0.51534  0.19960  0.87568  1.0000
  H   H1315     1.0  0.48466  0.26124  0.12432  1.0000
  O   O415      1.0  0.50000  0.24566  0.12432  1.0000
  H   H1316     1.0  0.51534  0.26124  0.12432  1.0000
  H   H1317     1.0  0.48466  0.26124  0.18693  1.0000
  O   O416      1.0  0.50000  0.24566  0.18693  1.0000
  H   H1318     1.0  0.51534  0.26124  0.18693  1.0000
  H   H1319     1.0  0.48466  0.26124  0.75045  1.0000
  O   O417      1.0  0.50000  0.24566  0.75045  1.0000
  H   H1320     1.0  0.51534  0.26124  0.75045  1.0000
  H   H1321     1.0  0.48466  0.26124  0.81307  1.0000
  O   O418      1.0  0.50000  0.24566  0.81307  1.0000
  H   H1322     1.0  0.51534  0.26124  0.81307  1.0000
  H   H1323     1.0  0.48466  0.26124  0.87568  1.0000
  O   O419      1.0  0.50000  0.24566  0.87568  1.0000
  H   H1324     1.0  0.51534  0.26124  0.87568  1.0000
  H   H1325     1.0  0.48466  0.32287  0.12432  1.0000
  O   O420      1.0  0.50000  0.30730  0.12432  1.0000
  H   H1326     1.0  0.51534  0.32287  0.12432  1.0000
  H   H1327     1.0  0.48466  0.32287  0.87568  1.0000
  O   O421      1.0  0.50000  0.30730  0.87568  1.0000
  H   H1328     1.0  0.51534  0.32287  0.87568  1.0000
  H   H1329     1.0  0.48466  0.38451  0.12432  1.0000
  O   O422      1.0  0.50000  0.36894  0.12432  1.0000
  H   H1330     1.0  0.51534  0.38451  0.12432  1.0000
  H   H1331     1.0  0.48466  0.38451  0.87568  1.0000
  O   O423      1.0  0.50000  0.36894  0.87568  1.0000
  H   H1332     1.0  0.51534  0.38451  0.87568  1.0000
  H   H1333     1.0  0.48466  0.44615  0.12432  1.0000
  O   O424      1.0  0.50000  0.43057  0.12432  1.0000
  H   H1334     1.0  0.51534  0.44615  0.12432  1.0000
  H   H1335     1.0  0.48466  0.44615  0.87568  1.0000
  O   O425      1.0  0.50000  0.43057  0.87568  1.0000
  H   H1336     1.0  0.51534  0.44615  0.87568  1.0000
  H   H1337     1.0  0.48466  0.50779  0.12432  1.0000
  O   O426      1.0  0.50000  0.49221  0.12432  1.0000
  H   H1338     1.0  0.51534  0.50779  0.12432  1.0000
  H   H1339     1.0  0.48466  0.50779  0.87568  1.0000
  O   O427      1.0  0.50000  0.49221  0.87568  1.0000
  H   H1340     1.0  0.51534  0.50779  0.87568  1.0000
  H   H1341     1.0  0.48466  0.56943  0.12432  1.0000
  O   O428      1.0  0.50000  0.55385  0.12432  1.0000
  H   H1342     1.0  0.51534  0.56943  0.12432  1.0000
  H   H1343     1.0  0.48466  0.56943  0.87568  1.0000
  O   O429      1.0  0.50000  0.55385  0.87568  1.0000
  H   H1344     1.0  0.51534  0.56943  0.87568  1.0000
  H   H1345     1.0  0.48466  0.63106  0.12432  1.0000
  O   O430      1.0  0.50000  0.61549  0.12432  1.0000
  H   H1346     1.0  0.51534  0.63106  0.12432  1.0000
  H   H1347     1.0  0.48466  0.63106  0.87568  1.0000
  O   O431      1.0  0.50000  0.61549  0.87568  1.0000
  H   H1348     1.0  0.51534  0.63106  0.87568  1.0000
  H   H1349     1.0  0.48466  0.69270  0.12432  1.0000
  O   O432      1.0  0.50000  0.67713  0.12432  1.0000
  H   H1350     1.0  0.51534  0.69270  0.12432  1.0000
  H   H1351     1.0  0.48466  0.69270  0.87568  1.0000
  O   O433      1.0  0.50000  0.67713  0.87568  1.0000
  H   H1352     1.0  0.51534  0.69270  0.87568  1.0000
  H   H1353     1.0  0.48466  0.75434  0.12432  1.0000
  O   O434      1.0  0.50000  0.73876  0.12432  1.0000
  H   H1354     1.0  0.51534  0.75434  0.12432  1.0000
  H   H1355     1.0  0.48466  0.75434  0.18693  1.0000
  O   O435      1.0  0.50000  0.73876  0.18693  1.0000
  H   H1356     1.0  0.51534  0.75434  0.18693  1.0000
  H   H1357     1.0  0.48466  0.75434  0.75045  1.0000
  O   O436      1.0  0.50000  0.73876  0.75045  1.0000
  H   H1358     1.0  0.51534  0.75434  0.75045  1.0000
  H   H1359     1.0  0.48466  0.75434  0.81307  1.0000
  O   O437      1.0  0.50000  0.73876  0.81307  1.0000
  H   H1360     1.0  0.51534  0.75434  0.81307  1.0000
  H   H1361     1.0  0.48466  0.75434  0.87568  1.0000
  O   O438      1.0  0.50000  0.73876  0.87568  1.0000
  H   H1362     1.0  0.51534  0.75434  0.87568  1.0000
  H   H1363     1.0  0.48466  0.81598  0.12432  1.0000
  O   O439      1.0  0.50000  0.80040  0.12432  1.0000
  H   H1364     1.0  0.51534  0.81598  0.12432  1.0000
  H   H1365     1.0  0.48466  0.81598  0.18693  1.0000
  O   O440      1.0  0.50000  0.80040  0.18693  1.0000
  H   H1366     1.0  0.51534  0.81598  0.18693  1.0000
  H   H1367     1.0  0.48466  0.81598  0.24955  1.0000
  O   O441      1.0  0.50000  0.80040  0.24955  1.0000
  H   H1368     1.0  0.51534  0.81598  0.24955  1.0000
  H   H1369     1.0  0.48466  0.81598  0.75045  1.0000
  O   O442      1.0  0.50000  0.80040  0.75045  1.0000
  H   H1370     1.0  0.51534  0.81598  0.75045  1.0000
  H   H1371     1.0  0.48466  0.81598  0.81307  1.0000
  O   O443      1.0  0.50000  0.80040  0.81307  1.0000
  H   H1372     1.0  0.51534  0.81598  0.81307  1.0000
  H   H1373     1.0  0.48466  0.81598  0.87568  1.0000
  O   O444      1.0  0.50000  0.80040  0.87568  1.0000
  H   H1374     1.0  0.51534  0.81598  0.87568  1.0000
  H   H1375     1.0  0.48466  0.87761  0.18693  1.0000
  O   O445      1.0  0.50000  0.86204  0.18693  1.0000
  H   H1376     1.0  0.51534  0.87761  0.18693  1.0000
  H   H1377     1.0  0.48466  0.87761  0.24955  1.0000
  O   O446      1.0  0.50000  0.86204  0.24955  1.0000
  H   H1378     1.0  0.51534  0.87761  0.24955  1.0000
  H   H1379     1.0  0.48466  0.87761  0.31216  1.0000
  O   O447      1.0  0.50000  0.86204  0.31216  1.0000
  H   H1380     1.0  0.51534  0.87761  0.31216  1.0000
  H   H1381     1.0  0.48466  0.87761  0.37477  1.0000
  O   O448      1.0  0.50000  0.86204  0.37477  1.0000
  H   H1382     1.0  0.51534  0.87761  0.37477  1.0000
  H   H1383     1.0  0.48466  0.87761  0.43739  1.0000
  O   O449      1.0  0.50000  0.86204  0.43739  1.0000
  H   H1384     1.0  0.51534  0.87761  0.43739  1.0000
  H   H1385     1.0  0.48466  0.87761  0.50000  1.0000
  O   O450      1.0  0.50000  0.86204  0.50000  1.0000
  H   H1386     1.0  0.51534  0.87761  0.50000  1.0000
  H   H1387     1.0  0.48466  0.87761  0.56261  1.0000
  O   O451      1.0  0.50000  0.86204  0.56261  1.0000
  H   H1388     1.0  0.51534  0.87761  0.56261  1.0000
  H   H1389     1.0  0.48466  0.87761  0.62523  1.0000
  O   O452      1.0  0.50000  0.86204  0.62523  1.0000
  H   H1390     1.0  0.51534  0.87761  0.62523  1.0000
  H   H1391     1.0  0.48466  0.87761  0.68784  1.0000
  O   O453      1.0  0.50000  0.86204  0.68784  1.0000
  H   H1392     1.0  0.51534  0.87761  0.68784  1.0000
  H   H1393     1.0  0.48466  0.87761  0.75045  1.0000
  O   O454      1.0  0.50000  0.86204  0.75045  1.0000
  H   H1394     1.0  0.51534  0.87761  0.75045  1.0000
  H   H1395     1.0  0.48466  0.87761  0.81307  1.0000
  O   O455      1.0  0.50000  0.86204  0.81307  1.0000
  H   H1396     1.0  0.51534  0.87761  0.81307  1.0000
  H   H1397     1.0  0.54535  0.13796  0.18693  1.0000
  O   O456      1.0  0.56069  0.12239  0.18693  1.0000
  H   H1398     1.0  0.57603  0.13796  0.18693  1.0000
  H   H1399     1.0  0.54535  0.13796  0.24955  1.0000
  O   O457      1.0  0.56069  0.12239  0.24955  1.0000
  H   H1400     1.0  0.57603  0.13796  0.24955  1.0000
  H   H1401     1.0  0.54535  0.13796  0.31216  1.0000
  O   O458      1.0  0.56069  0.12239  0.31216  1.0000
  H   H1402     1.0  0.57603  0.13796  0.31216  1.0000
  H   H1403     1.0  0.54535  0.13796  0.37477  1.0000
  O   O459      1.0  0.56069  0.12239  0.37477  1.0000
  H   H1404     1.0  0.57603  0.13796  0.37477  1.0000
  H   H1405     1.0  0.54535  0.13796  0.43739  1.0000
  O   O460      1.0  0.56069  0.12239  0.43739  1.0000
  H   H1406     1.0  0.57603  0.13796  0.43739  1.0000
  H   H1407     1.0  0.54535  0.13796  0.50000  1.0000
  O   O461      1.0  0.56069  0.12239  0.50000  1.0000
  H   H1408     1.0  0.57603  0.13796  0.50000  1.0000
  H   H1409     1.0  0.54535  0.13796  0.56261  1.0000
  O   O462      1.0  0.56069  0.12239  0.56261  1.0000
  H   H1410     1.0  0.57603  0.13796  0.56261  1.0000
  H   H1411     1.0  0.54535  0.13796  0.62523  1.0000
  O   O463      1.0  0.56069  0.12239  0.62523  1.0000
  H   H1412     1.0  0.57603  0.13796  0.62523  1.0000
  H   H1413     1.0  0.54535  0.13796  0.68784  1.0000
  O   O464      1.0  0.56069  0.12239  0.68784  1.0000
  H   H1414     1.0  0.57603  0.13796  0.68784  1.0000
  H   H1415     1.0  0.54535  0.13796  0.75045  1.0000
  O   O465      1.0  0.56069  0.12239  0.75045  1.0000
  H   H1416     1.0  0.57603  0.13796  0.75045  1.0000
  H   H1417     1.0  0.54535  0.13796  0.81307  1.0000
  O   O466      1.0  0.56069  0.12239  0.81307  1.0000
  H   H1418     1.0  0.57603  0.13796  0.81307  1.0000
  H   H1419     1.0  0.54535  0.19960  0.12432  1.0000
  O   O467      1.0  0.56069  0.18402  0.12432  1.0000
  H   H1420     1.0  0.57603  0.19960  0.12432  1.0000
  H   H1421     1.0  0.54535  0.19960  0.18693  1.0000
  O   O468      1.0  0.56069  0.18402  0.18693  1.0000
  H   H1422     1.0  0.57603  0.19960  0.18693  1.0000
  H   H1423     1.0  0.54535  0.19960  0.81307  1.0000
  O   O469      1.0  0.56069  0.18402  0.81307  1.0000
  H   H1424     1.0  0.57603  0.19960  0.81307  1.0000
  H   H1425     1.0  0.54535  0.19960  0.87568  1.0000
  O   O470      1.0  0.56069  0.18402  0.87568  1.0000
  H   H1426     1.0  0.57603  0.19960  0.87568  1.0000
  H   H1427     1.0  0.54535  0.26124  0.12432  1.0000
  O   O471      1.0  0.56069  0.24566  0.12432  1.0000
  H   H1428     1.0  0.57603  0.26124  0.12432  1.0000
  H   H1429     1.0  0.54535  0.26124  0.87568  1.0000
  O   O472      1.0  0.56069  0.24566  0.87568  1.0000
  H   H1430     1.0  0.57603  0.26124  0.87568  1.0000
  H   H1431     1.0  0.54535  0.32287  0.12432  1.0000
  O   O473      1.0  0.56069  0.30730  0.12432  1.0000
  H   H1432     1.0  0.57603  0.32287  0.12432  1.0000
  H   H1433     1.0  0.54535  0.32287  0.87568  1.0000
  O   O474      1.0  0.56069  0.30730  0.87568  1.0000
  H   H1434     1.0  0.57603  0.32287  0.87568  1.0000
  H   H1435     1.0  0.54535  0.38451  0.12432  1.0000
  O   O475      1.0  0.56069  0.36894  0.12432  1.0000
  H   H1436     1.0  0.57603  0.38451  0.12432  1.0000
  H   H1437     1.0  0.54535  0.38451  0.87568  1.0000
  O   O476      1.0  0.56069  0.36894  0.87568  1.0000
  H   H1438     1.0  0.57603  0.38451  0.87568  1.0000
  H   H1439     1.0  0.54535  0.44615  0.12432  1.0000
  O   O477      1.0  0.56069  0.43057  0.12432  1.0000
  H   H1440     1.0  0.57603  0.44615  0.12432  1.0000
  H   H1441     1.0  0.54535  0.44615  0.87568  1.0000
  O   O478      1.0  0.56069  0.43057  0.87568  1.0000
  H   H1442     1.0  0.57603  0.44615  0.87568  1.0000
  H   H1443     1.0  0.54535  0.50779  0.12432  1.0000
  O   O479      1.0  0.56069  0.49221  0.12432  1.0000
  H   H1444     1.0  0.57603  0.50779  0.12432  1.0000
  H   H1445     1.0  0.54535  0.50779  0.87568  1.0000
  O   O480      1.0  0.56069  0.49221  0.87568  1.0000
  H   H1446     1.0  0.57603  0.50779  0.87568  1.0000
  H   H1447     1.0  0.54535  0.56943  0.12432  1.0000
  O   O481      1.0  0.56069  0.55385  0.12432  1.0000
  H   H1448     1.0  0.57603  0.56943  0.12432  1.0000
  H   H1449     1.0  0.54535  0.56943  0.87568  1.0000
  O   O482      1.0  0.56069  0.55385  0.87568  1.0000
  H   H1450     1.0  0.57603  0.56943  0.87568  1.0000
  H   H1451     1.0  0.54535  0.63106  0.12432  1.0000
  O   O483      1.0  0.56069  0.61549  0.12432  1.0000
  H   H1452     1.0  0.57603  0.63106  0.12432  1.0000
  H   H1453     1.0  0.54535  0.63106  0.87568  1.0000
  O   O484      1.0  0.56069  0.61549  0.87568  1.0000
  H   H1454     1.0  0.57603  0.63106  0.87568  1.0000
  H   H1455     1.0  0.54535  0.69270  0.12432  1.0000
  O   O485      1.0  0.56069  0.67713  0.12432  1.0000
  H   H1456     1.0  0.57603  0.69270  0.12432  1.0000
  H   H1457     1.0  0.54535  0.69270  0.87568  1.0000
  O   O486      1.0  0.56069  0.67713  0.87568  1.0000
  H   H1458     1.0  0.57603  0.69270  0.87568  1.0000
  H   H1459     1.0  0.54535  0.75434  0.12432  1.0000
  O   O487      1.0  0.56069  0.73876  0.12432  1.0000
  H   H1460     1.0  0.57603  0.75434  0.12432  1.0000
  H   H1461     1.0  0.54535  0.75434  0.87568  1.0000
  O   O488      1.0  0.56069  0.73876  0.87568  1.0000
  H   H1462     1.0  0.57603  0.75434  0.87568  1.0000
  H   H1463     1.0  0.54535  0.81598  0.12432  1.0000
  O   O489      1.0  0.56069  0.80040  0.12432  1.0000
  H   H1464     1.0  0.57603  0.81598  0.12432  1.0000
  H   H1465     1.0  0.54535  0.81598  0.18693  1.0000
  O   O490      1.0  0.56069  0.80040  0.18693  1.0000
  H   H1466     1.0  0.57603  0.81598  0.18693  1.0000
  H   H1467     1.0  0.54535  0.81598  0.81307  1.0000
  O   O491      1.0  0.56069  0.80040  0.81307  1.0000
  H   H1468     1.0  0.57603  0.81598  0.81307  1.0000
  H   H1469     1.0  0.54535  0.81598  0.87568  1.0000
  O   O492      1.0  0.56069  0.80040  0.87568  1.0000
  H   H1470     1.0  0.57603  0.81598  0.87568  1.0000
  H   H1471     1.0  0.54535  0.87761  0.18693  1.0000
  O   O493      1.0  0.56069  0.86204  0.18693  1.0000
  H   H1472     1.0  0.57603  0.87761  0.18693  1.0000
  H   H1473     1.0  0.54535  0.87761  0.24955  1.0000
  O   O494      1.0  0.56069  0.86204  0.24955  1.0000
  H   H1474     1.0  0.57603  0.87761  0.24955  1.0000
  H   H1475     1.0  0.54535  0.87761  0.31216  1.0000
  O   O495      1.0  0.56069  0.86204  0.31216  1.0000
  H   H1476     1.0  0.57603  0.87761  0.31216  1.0000
  H   H1477     1.0  0.54535  0.87761  0.37477  1.0000
  O   O496      1.0  0.56069  0.86204  0.37477  1.0000
  H   H1478     1.0  0.57603  0.87761  0.37477  1.0000
  H   H1479     1.0  0.54535  0.87761  0.43739  1.0000
  O   O497      1.0  0.56069  0.86204  0.43739  1.0000
  H   H1480     1.0  0.57603  0.87761  0.43739  1.0000
  H   H1481     1.0  0.54535  0.87761  0.50000  1.0000
  O   O498      1.0  0.56069  0.86204  0.50000  1.0000
  H   H1482     1.0  0.57603  0.87761  0.50000  1.0000
  H   H1483     1.0  0.54535  0.87761  0.56261  1.0000
  O   O499      1.0  0.56069  0.86204  0.56261  1.0000
  H   H1484     1.0  0.57603  0.87761  0.56261  1.0000
  H   H1485     1.0  0.54535  0.87761  0.62523  1.0000
  O   O500      1.0  0.56069  0.86204  0.62523  1.0000
  H   H1486     1.0  0.57603  0.87761  0.62523  1.0000
  H   H1487     1.0  0.54535  0.87761  0.68784  1.0000
  O   O501      1.0  0.56069  0.86204  0.68784  1.0000
  H   H1488     1.0  0.57603  0.87761  0.68784  1.0000
  H   H1489     1.0  0.54535  0.87761  0.75045  1.0000
  O   O502      1.0  0.56069  0.86204  0.75045  1.0000
  H   H1490     1.0  0.57603  0.87761  0.75045  1.0000
  H   H1491     1.0  0.54535  0.87761  0.81307  1.0000
  O   O503      1.0  0.56069  0.86204  0.81307  1.0000
  H   H1492     1.0  0.57603  0.87761  0.81307  1.0000
  H   H1493     1.0  0.60605  0.13796  0.18693  1.0000
  O   O504      1.0  0.62138  0.12239  0.18693  1.0000
  H   H1494     1.0  0.63672  0.13796  0.18693  1.0000
  H   H1495     1.0  0.60605  0.13796  0.24955  1.0000
  O   O505      1.0  0.62138  0.12239  0.24955  1.0000
  H   H1496     1.0  0.63672  0.13796  0.24955  1.0000
  H   H1497     1.0  0.60605  0.13796  0.31216  1.0000
  O   O506      1.0  0.62138  0.12239  0.31216  1.0000
  H   H1498     1.0  0.63672  0.13796  0.31216  1.0000
  H   H1499     1.0  0.60605  0.13796  0.37477  1.0000
  O   O507      1.0  0.62138  0.12239  0.37477  1.0000
  H   H1500     1.0  0.63672  0.13796  0.37477  1.0000
  H   H1501     1.0  0.60605  0.13796  0.43739  1.0000
  O   O508      1.0  0.62138  0.12239  0.43739  1.0000
  H   H1502     1.0  0.63672  0.13796  0.43739  1.0000
  H   H1503     1.0  0.60605  0.13796  0.50000  1.0000
  O   O509      1.0  0.62138  0.12239  0.50000  1.0000
  H   H1504     1.0  0.63672  0.13796  0.50000  1.0000
  H   H1505     1.0  0.60605  0.13796  0.56261  1.0000
  O   O510      1.0  0.62138  0.12239  0.56261  1.0000
  H   H1506     1.0  0.63672  0.13796  0.56261  1.0000
  H   H1507     1.0  0.60605  0.13796  0.62523  1.0000
  O   O511      1.0  0.62138  0.12239  0.62523  1.0000
  H   H1508     1.0  0.63672  0.13796  0.62523  1.0000
  H   H1509     1.0  0.60605  0.13796  0.68784  1.0000
  O   O512      1.0  0.62138  0.12239  0.68784  1.0000
  H   H1510     1.0  0.63672  0.13796  0.68784  1.0000
  H   H1511     1.0  0.60605  0.13796  0.75045  1.0000
  O   O513      1.0  0.62138  0.12239  0.75045  1.0000
  H   H1512     1.0  0.63672  0.13796  0.75045  1.0000
  H   H1513     1.0  0.60605  0.13796  0.81307  1.0000
  O   O514      1.0  0.62138  0.12239  0.81307  1.0000
  H   H1514     1.0  0.63672  0.13796  0.81307  1.0000
  H   H1515     1.0  0.60605  0.19960  0.12432  1.0000
  O   O515      1.0  0.62138  0.18402  0.12432  1.0000
  H   H1516     1.0  0.63672  0.19960  0.12432  1.0000
  H   H1517     1.0  0.60605  0.19960  0.18693  1.0000
  O   O516      1.0  0.62138  0.18402  0.18693  1.0000
  H   H1518     1.0  0.63672  0.19960  0.18693  1.0000
  H   H1519     1.0  0.60605  0.19960  0.24955  1.0000
  O   O517      1.0  0.62138  0.18402  0.24955  1.0000
  H   H1520     1.0  0.63672  0.19960  0.24955  1.0000
  H   H1521     1.0  0.60605  0.19960  0.75045  1.0000
  O   O518      1.0  0.62138  0.18402  0.75045  1.0000
  H   H1522     1.0  0.63672  0.19960  0.75045  1.0000
  H   H1523     1.0  0.60605  0.19960  0.81307  1.0000
  O   O519      1.0  0.62138  0.18402  0.81307  1.0000
  H   H1524     1.0  0.63672  0.19960  0.81307  1.0000
  H   H1525     1.0  0.60605  0.19960  0.87568  1.0000
  O   O520      1.0  0.62138  0.18402  0.87568  1.0000
  H   H1526     1.0  0.63672  0.19960  0.87568  1.0000
  H   H1527     1.0  0.60605  0.26124  0.12432  1.0000
  O   O521      1.0  0.62138  0.24566  0.12432  1.0000
  H   H1528     1.0  0.63672  0.26124  0.12432  1.0000
  H   H1529     1.0  0.60605  0.26124  0.18693  1.0000
  O   O522      1.0  0.62138  0.24566  0.18693  1.0000
  H   H1530     1.0  0.63672  0.26124  0.18693  1.0000
  H   H1531     1.0  0.60605  0.26124  0.75045  1.0000
  O   O523      1.0  0.62138  0.24566  0.75045  1.0000
  H   H1532     1.0  0.63672  0.26124  0.75045  1.0000
  H   H1533     1.0  0.60605  0.26124  0.81307  1.0000
  O   O524      1.0  0.62138  0.24566  0.81307  1.0000
  H   H1534     1.0  0.63672  0.26124  0.81307  1.0000
  H   H1535     1.0  0.60605  0.26124  0.87568  1.0000
  O   O525      1.0  0.62138  0.24566  0.87568  1.0000
  H   H1536     1.0  0.63672  0.26124  0.87568  1.0000
  H   H1537     1.0  0.60605  0.32287  0.12432  1.0000
  O   O526      1.0  0.62138  0.30730  0.12432  1.0000
  H   H1538     1.0  0.63672  0.32287  0.12432  1.0000
  H   H1539     1.0  0.60605  0.32287  0.87568  1.0000
  O   O527      1.0  0.62138  0.30730  0.87568  1.0000
  H   H1540     1.0  0.63672  0.32287  0.87568  1.0000
  H   H1541     1.0  0.60605  0.38451  0.12432  1.0000
  O   O528      1.0  0.62138  0.36894  0.12432  1.0000
  H   H1542     1.0  0.63672  0.38451  0.12432  1.0000
  H   H1543     1.0  0.60605  0.38451  0.87568  1.0000
  O   O529      1.0  0.62138  0.36894  0.87568  1.0000
  H   H1544     1.0  0.63672  0.38451  0.87568  1.0000
  H   H1545     1.0  0.60605  0.44615  0.12432  1.0000
  O   O530      1.0  0.62138  0.43057  0.12432  1.0000
  H   H1546     1.0  0.63672  0.44615  0.12432  1.0000
  H   H1547     1.0  0.60605  0.44615  0.87568  1.0000
  O   O531      1.0  0.62138  0.43057  0.87568  1.0000
  H   H1548     1.0  0.63672  0.44615  0.87568  1.0000
  H   H1549     1.0  0.60605  0.50779  0.12432  1.0000
  O   O532      1.0  0.62138  0.49221  0.12432  1.0000
  H   H1550     1.0  0.63672  0.50779  0.12432  1.0000
  H   H1551     1.0  0.60605  0.50779  0.87568  1.0000
  O   O533      1.0  0.62138  0.49221  0.87568  1.0000
  H   H1552     1.0  0.63672  0.50779  0.87568  1.0000
  H   H1553     1.0  0.60605  0.56943  0.12432  1.0000
  O   O534      1.0  0.62138  0.55385  0.12432  1.0000
  H   H1554     1.0  0.63672  0.56943  0.12432  1.0000
  H   H1555     1.0  0.60605  0.56943  0.87568  1.0000
  O   O535      1.0  0.62138  0.55385  0.87568  1.0000
  H   H1556     1.0  0.63672  0.56943  0.87568  1.0000
  H   H1557     1.0  0.60605  0.63106  0.12432  1.0000
  O   O536      1.0  0.62138  0.61549  0.12432  1.0000
  H   H1558     1.0  0.63672  0.63106  0.12432  1.0000
  H   H1559     1.0  0.60605  0.63106  0.87568  1.0000
  O   O537      1.0  0.62138  0.61549  0.87568  1.0000
  H   H1560     1.0  0.63672  0.63106  0.87568  1.0000
  H   H1561     1.0  0.60605  0.69270  0.12432  1.0000
  O   O538      1.0  0.62138  0.67713  0.12432  1.0000
  H   H1562     1.0  0.63672  0.69270  0.12432  1.0000
  H   H1563     1.0  0.60605  0.69270  0.87568  1.0000
  O   O539      1.0  0.62138  0.67713  0.87568  1.0000
  H   H1564     1.0  0.63672  0.69270  0.87568  1.0000
  H   H1565     1.0  0.60605  0.75434  0.12432  1.0000
  O   O540      1.0  0.62138  0.73876  0.12432  1.0000
  H   H1566     1.0  0.63672  0.75434  0.12432  1.0000
  H   H1567     1.0  0.60605  0.75434  0.18693  1.0000
  O   O541      1.0  0.62138  0.73876  0.18693  1.0000
  H   H1568     1.0  0.63672  0.75434  0.18693  1.0000
  H   H1569     1.0  0.60605  0.75434  0.75045  1.0000
  O   O542      1.0  0.62138  0.73876  0.75045  1.0000
  H   H1570     1.0  0.63672  0.75434  0.75045  1.0000
  H   H1571     1.0  0.60605  0.75434  0.81307  1.0000
  O   O543      1.0  0.62138  0.73876  0.81307  1.0000
  H   H1572     1.0  0.63672  0.75434  0.81307  1.0000
  H   H1573     1.0  0.60605  0.75434  0.87568  1.0000
  O   O544      1.0  0.62138  0.73876  0.87568  1.0000
  H   H1574     1.0  0.63672  0.75434  0.87568  1.0000
  H   H1575     1.0  0.60605  0.81598  0.12432  1.0000
  O   O545      1.0  0.62138  0.80040  0.12432  1.0000
  H   H1576     1.0  0.63672  0.81598  0.12432  1.0000
  H   H1577     1.0  0.60605  0.81598  0.18693  1.0000
  O   O546      1.0  0.62138  0.80040  0.18693  1.0000
  H   H1578     1.0  0.63672  0.81598  0.18693  1.0000
  H   H1579     1.0  0.60605  0.81598  0.24955  1.0000
  O   O547      1.0  0.62138  0.80040  0.24955  1.0000
  H   H1580     1.0  0.63672  0.81598  0.24955  1.0000
  H   H1581     1.0  0.60605  0.81598  0.75045  1.0000
  O   O548      1.0  0.62138  0.80040  0.75045  1.0000
  H   H1582     1.0  0.63672  0.81598  0.75045  1.0000
  H   H1583     1.0  0.60605  0.81598  0.81307  1.0000
  O   O549      1.0  0.62138  0.80040  0.81307  1.0000
  H   H1584     1.0  0.63672  0.81598  0.81307  1.0000
  H   H1585     1.0  0.60605  0.81598  0.87568  1.0000
  O   O550      1.0  0.62138  0.80040  0.87568  1.0000
  H   H1586     1.0  0.63672  0.81598  0.87568  1.0000
  H   H1587     1.0  0.60605  0.87761  0.18693  1.0000
  O   O551      1.0  0.62138  0.86204  0.18693  1.0000
  H   H1588     1.0  0.63672  0.87761  0.18693  1.0000
  H   H1589     1.0  0.60605  0.87761  0.24955  1.0000
  O   O552      1.0  0.62138  0.86204  0.24955  1.0000
  H   H1590     1.0  0.63672  0.87761  0.24955  1.0000
  H   H1591     1.0  0.60605  0.87761  0.31216  1.0000
  O   O553      1.0  0.62138  0.86204  0.31216  1.0000
  H   H1592     1.0  0.63672  0.87761  0.31216  1.0000
  H   H1593     1.0  0.60605  0.87761  0.37477  1.0000
  O   O554      1.0  0.62138  0.86204  0.37477  1.0000
  H   H1594     1.0  0.63672  0.87761  0.37477  1.0000
  H   H1595     1.0  0.60605  0.87761  0.43739  1.0000
  O   O555      1.0  0.62138  0.86204  0.43739  1.0000
  H   H1596     1.0  0.63672  0.87761  0.43739  1.0000
  H   H1597     1.0  0.60605  0.87761  0.50000  1.0000
  O   O556      1.0  0.62138  0.86204  0.50000  1.0000
  H   H1598     1.0  0.63672  0.87761  0.50000  1.0000
  H   H1599     1.0  0.60605  0.87761  0.56261  1.0000
  O   O557      1.0  0.62138  0.86204  0.56261  1.0000
  H   H1600     1.0  0.63672  0.87761  0.56261  1.0000
  H   H1601     1.0  0.60605  0.87761  0.62523  1.0000
  O   O558      1.0  0.62138  0.86204  0.62523  1.0000
  H   H1602     1.0  0.63672  0.87761  0.62523  1.0000
  H   H1603     1.0  0.60605  0.87761  0.68784  1.0000
  O   O559      1.0  0.62138  0.86204  0.68784  1.0000
  H   H1604     1.0  0.63672  0.87761  0.68784  1.0000
  H   H1605     1.0  0.60605  0.87761  0.75045  1.0000
  O   O560      1.0  0.62138  0.86204  0.75045  1.0000
  H   H1606     1.0  0.63672  0.87761  0.75045  1.0000
  H   H1607     1.0  0.60605  0.87761  0.81307  1.0000
  O   O561      1.0  0.62138  0.86204  0.81307  1.0000
  H   H1608     1.0  0.63672  0.87761  0.81307  1.0000
  H   H1609     1.0  0.66674  0.13796  0.18693  1.0000
  O   O562      1.0  0.68208  0.12239  0.18693  1.0000
  H   H1610     1.0  0.69741  0.13796  0.18693  1.0000
  H   H1611     1.0  0.66674  0.13796  0.24955  1.0000
  O   O563      1.0  0.68208  0.12239  0.24955  1.0000
  H   H1612     1.0  0.69741  0.13796  0.24955  1.0000
  H   H1613     1.0  0.66674  0.13796  0.31216  1.0000
  O   O564      1.0  0.68208  0.12239  0.31216  1.0000
  H   H1614     1.0  0.69741  0.13796  0.31216  1.0000
  H   H1615     1.0  0.66674  0.13796  0.37477  1.0000
  O   O565      1.0  0.68208  0.12239  0.37477  1.0000
  H   H1616     1.0  0.69741  0.13796  0.37477  1.0000
  H   H1617     1.0  0.66674  0.13796  0.43739  1.0000
  O   O566      1.0  0.68208  0.12239  0.43739  1.0000
  H   H1618     1.0  0.69741  0.13796  0.43739  1.0000
  H   H1619     1.0  0.66674  0.13796  0.50000  1.0000
  O   O567      1.0  0.68208  0.12239  0.50000  1.0000
  H   H1620     1.0  0.69741  0.13796  0.50000  1.0000
  H   H1621     1.0  0.66674  0.13796  0.56261  1.0000
  O   O568      1.0  0.68208  0.12239  0.56261  1.0000
  H   H1622     1.0  0.69741  0.13796  0.56261  1.0000
  H   H1623     1.0  0.66674  0.13796  0.62523  1.0000
  O   O569      1.0  0.68208  0.12239  0.62523  1.0000
  H   H1624     1.0  0.69741  0.13796  0.62523  1.0000
  H   H1625     1.0  0.66674  0.13796  0.68784  1.0000
  O   O570      1.0  0.68208  0.12239  0.68784  1.0000
  H   H1626     1.0  0.69741  0.13796  0.68784  1.0000
  H   H1627     1.0  0.66674  0.13796  0.75045  1.0000
  O   O571      1.0  0.68208  0.12239  0.75045  1.0000
  H   H1628     1.0  0.69741  0.13796  0.75045  1.0000
  H   H1629     1.0  0.66674  0.13796  0.81307  1.0000
  O   O572      1.0  0.68208  0.12239  0.81307  1.0000
  H   H1630     1.0  0.69741  0.13796  0.81307  1.0000
  H   H1631     1.0  0.66674  0.19960  0.12432  1.0000
  O   O573      1.0  0.68208  0.18402  0.12432  1.0000
  H   H1632     1.0  0.69741  0.19960  0.12432  1.0000
  H   H1633     1.0  0.66674  0.19960  0.18693  1.0000
  O   O574      1.0  0.68208  0.18402  0.18693  1.0000
  H   H1634     1.0  0.69741  0.19960  0.18693  1.0000
  H   H1635     1.0  0.66674  0.19960  0.81307  1.0000
  O   O575      1.0  0.68208  0.18402  0.81307  1.0000
  H   H1636     1.0  0.69741  0.19960  0.81307  1.0000
  H   H1637     1.0  0.66674  0.19960  0.87568  1.0000
  O   O576      1.0  0.68208  0.18402  0.87568  1.0000
  H   H1638     1.0  0.69741  0.19960  0.87568  1.0000
  H   H1639     1.0  0.66674  0.26124  0.12432  1.0000
  O   O577      1.0  0.68208  0.24566  0.12432  1.0000
  H   H1640     1.0  0.69741  0.26124  0.12432  1.0000
  H   H1641     1.0  0.66674  0.26124  0.87568  1.0000
  O   O578      1.0  0.68208  0.24566  0.87568  1.0000
  H   H1642     1.0  0.69741  0.26124  0.87568  1.0000
  H   H1643     1.0  0.66674  0.32287  0.12432  1.0000
  O   O579      1.0  0.68208  0.30730  0.12432  1.0000
  H   H1644     1.0  0.69741  0.32287  0.12432  1.0000
  H   H1645     1.0  0.66674  0.32287  0.87568  1.0000
  O   O580      1.0  0.68208  0.30730  0.87568  1.0000
  H   H1646     1.0  0.69741  0.32287  0.87568  1.0000
  H   H1647     1.0  0.66674  0.38451  0.12432  1.0000
  O   O581      1.0  0.68208  0.36894  0.12432  1.0000
  H   H1648     1.0  0.69741  0.38451  0.12432  1.0000
  H   H1649     1.0  0.66674  0.38451  0.87568  1.0000
  O   O582      1.0  0.68208  0.36894  0.87568  1.0000
  H   H1650     1.0  0.69741  0.38451  0.87568  1.0000
  H   H1651     1.0  0.66674  0.44615  0.12432  1.0000
  O   O583      1.0  0.68208  0.43057  0.12432  1.0000
  H   H1652     1.0  0.69741  0.44615  0.12432  1.0000
  H   H1653     1.0  0.66674  0.44615  0.87568  1.0000
  O   O584      1.0  0.68208  0.43057  0.87568  1.0000
  H   H1654     1.0  0.69741  0.44615  0.87568  1.0000
  H   H1655     1.0  0.66674  0.50779  0.12432  1.0000
  O   O585      1.0  0.68208  0.49221  0.12432  1.0000
  H   H1656     1.0  0.69741  0.50779  0.12432  1.0000
  H   H1657     1.0  0.66674  0.50779  0.87568  1.0000
  O   O586      1.0  0.68208  0.49221  0.87568  1.0000
  H   H1658     1.0  0.69741  0.50779  0.87568  1.0000
  H   H1659     1.0  0.66674  0.56943  0.12432  1.0000
  O   O587      1.0  0.68208  0.55385  0.12432  1.0000
  H   H1660     1.0  0.69741  0.56943  0.12432  1.0000
  H   H1661     1.0  0.66674  0.56943  0.87568  1.0000
  O   O588      1.0  0.68208  0.55385  0.87568  1.0000
  H   H1662     1.0  0.69741  0.56943  0.87568  1.0000
  H   H1663     1.0  0.66674  0.63106  0.12432  1.0000
  O   O589      1.0  0.68208  0.61549  0.12432  1.0000
  H   H1664     1.0  0.69741  0.63106  0.12432  1.0000
  H   H1665     1.0  0.66674  0.63106  0.87568  1.0000
  O   O590      1.0  0.68208  0.61549  0.87568  1.0000
  H   H1666     1.0  0.69741  0.63106  0.87568  1.0000
  H   H1667     1.0  0.66674  0.69270  0.12432  1.0000
  O   O591      1.0  0.68208  0.67713  0.12432  1.0000
  H   H1668     1.0  0.69741  0.69270  0.12432  1.0000
  H   H1669     1.0  0.66674  0.69270  0.87568  1.0000
  O   O592      1.0  0.68208  0.67713  0.87568  1.0000
  H   H1670     1.0  0.69741  0.69270  0.87568  1.0000
  H   H1671     1.0  0.66674  0.75434  0.12432  1.0000
  O   O593      1.0  0.68208  0.73876  0.12432  1.0000
  H   H1672     1.0  0.69741  0.75434  0.12432  1.0000
  H   H1673     1.0  0.66674  0.75434  0.87568  1.0000
  O   O594      1.0  0.68208  0.73876  0.87568  1.0000
  H   H1674     1.0  0.69741  0.75434  0.87568  1.0000
  H   H1675     1.0  0.66674  0.81598  0.12432  1.0000
  O   O595      1.0  0.68208  0.80040  0.12432  1.0000
  H   H1676     1.0  0.69741  0.81598  0.12432  1.0000
  H   H1677     1.0  0.66674  0.81598  0.18693  1.0000
  O   O596      1.0  0.68208  0.80040  0.18693  1.0000
  H   H1678     1.0  0.69741  0.81598  0.18693  1.0000
  H   H1679     1.0  0.66674  0.81598  0.81307  1.0000
  O   O597      1.0  0.68208  0.80040  0.81307  1.0000
  H   H1680     1.0  0.69741  0.81598  0.81307  1.0000
  H   H1681     1.0  0.66674  0.81598  0.87568  1.0000
  O   O598      1.0  0.68208  0.80040  0.87568  1.0000
  H   H1682     1.0  0.69741  0.81598  0.87568  1.0000
  H   H1683     1.0  0.66674  0.87761  0.18693  1.0000
  O   O599      1.0  0.68208  0.86204  0.18693  1.0000
  H   H1684     1.0  0.69741  0.87761  0.18693  1.0000
  H   H1685     1.0  0.66674  0.87761  0.24955  1.0000
  O   O600      1.0  0.68208  0.86204  0.24955  1.0000
  H   H1686     1.0  0.69741  0.87761  0.24955  1.0000
  H   H1687     1.0  0.66674  0.87761  0.31216  1.0000
  O   O601      1.0  0.68208  0.86204  0.31216  1.0000
  H   H1688     1.0  0.69741  0.87761  0.31216  1.0000
  H   H1689     1.0  0.66674  0.87761  0.37477  1.0000
  O   O602      1.0  0.68208  0.86204  0.37477  1.0000
  H   H1690     1.0  0.69741  0.87761  0.37477  1.0000
  H   H1691     1.0  0.66674  0.87761  0.43739  1.0000
  O   O603      1.0  0.68208  0.86204  0.43739  1.0000
  H   H1692     1.0  0.69741  0.87761  0.43739  1.0000
  H   H1693     1.0  0.66674  0.87761  0.50000  1.0000
  O   O604      1.0  0.68208  0.86204  0.50000  1.0000
  H   H1694     1.0  0.69741  0.87761  0.50000  1.0000
  H   H1695     1.0  0.66674  0.87761  0.56261  1.0000
  O   O605      1.0  0.68208  0.86204  0.56261  1.0000
  H   H1696     1.0  0.69741  0.87761  0.56261  1.0000
  H   H1697     1.0  0.66674  0.87761  0.62523  1.0000
  O   O606      1.0  0.68208  0.86204  0.62523  1.0000
  H   H1698     1.0  0.69741  0.87761  0.62523  1.0000
  H   H1699     1.0  0.66674  0.87761  0.68784  1.0000
  O   O607      1.0  0.68208  0.86204  0.68784  1.0000
  H   H1700     1.0  0.69741  0.87761  0.68784  1.0000
  H   H1701     1.0  0.66674  0.87761  0.75045  1.0000
  O   O608      1.0  0.68208  0.86204  0.75045  1.0000
  H   H1702     1.0  0.69741  0.87761  0.75045  1.0000
  H   H1703     1.0  0.66674  0.87761  0.81307  1.0000
  O   O609      1.0  0.68208  0.86204  0.81307  1.0000
  H   H1704     1.0  0.69741  0.87761  0.81307  1.0000
  H   H1705     1.0  0.72743  0.13796  0.18693  1.0000
  O   O610      1.0  0.74277  0.12239  0.18693  1.0000
  H   H1706     1.0  0.75811  0.13796  0.18693  1.0000
  H   H1707     1.0  0.72743  0.13796  0.24955  1.0000
  O   O611      1.0  0.74277  0.12239  0.24955  1.0000
  H   H1708     1.0  0.75811  0.13796  0.24955  1.0000
  H   H1709     1.0  0.72743  0.13796  0.31216  1.0000
  O   O612      1.0  0.74277  0.12239  0.31216  1.0000
  H   H1710     1.0  0.75811  0.13796  0.31216  1.0000
  H   H1711     1.0  0.72743  0.13796  0.37477  1.0000
  O   O613      1.0  0.74277  0.12239  0.37477  1.0000
  H   H1712     1.0  0.75811  0.13796  0.37477  1.0000
  H   H1713     1.0  0.72743  0.13796  0.43739  1.0000
  O   O614      1.0  0.74277  0.12239  0.43739  1.0000
  H   H1714     1.0  0.75811  0.13796  0.43739  1.0000
  H   H1715     1.0  0.72743  0.13796  0.50000  1.0000
  O   O615      1.0  0.74277  0.12239  0.50000  1.0000
  H   H1716     1.0  0.75811  0.13796  0.50000  1.0000
  H   H1717     1.0  0.72743  0.13796  0.56261  1.0000
  O   O616      1.0  0.74277  0.12239  0.56261  1.0000
  H   H1718     1.0  0.75811  0.13796  0.56261  1.0000
  H   H1719     1.0  0.72743  0.13796  0.62523  1.0000
  O   O617      1.0  0.74277  0.12239  0.62523  1.0000
  H   H1720     1.0  0.75811  0.13796  0.62523  1.0000
  H   H1721     1.0  0.72743  0.13796  0.68784  1.0000
  O   O618      1.0  0.74277  0.12239  0.68784  1.0000
  H   H1722     1.0  0.75811  0.13796  0.68784  1.0000
  H   H1723     1.0  0.72743  0.13796  0.75045  1.0000
  O   O619      1.0  0.74277  0.12239  0.75045  1.0000
  H   H1724     1.0  0.75811  0.13796  0.75045  1.0000
  H   H1725     1.0  0.72743  0.13796  0.81307  1.0000
  O   O620      1.0  0.74277  0.12239  0.81307  1.0000
  H   H1726     1.0  0.75811  0.13796  0.81307  1.0000
  H   H1727     1.0  0.72743  0.19960  0.12432  1.0000
  O   O621      1.0  0.74277  0.18402  0.12432  1.0000
  H   H1728     1.0  0.75811  0.19960  0.12432  1.0000
  H   H1729     1.0  0.72743  0.19960  0.18693  1.0000
  O   O622      1.0  0.74277  0.18402  0.18693  1.0000
  H   H1730     1.0  0.75811  0.19960  0.18693  1.0000
  H   H1731     1.0  0.72743  0.19960  0.24955  1.0000
  O   O623      1.0  0.74277  0.18402  0.24955  1.0000
  H   H1732     1.0  0.75811  0.19960  0.24955  1.0000
  H   H1733     1.0  0.72743  0.19960  0.31216  1.0000
  O   O624      1.0  0.74277  0.18402  0.31216  1.0000
  H   H1734     1.0  0.75811  0.19960  0.31216  1.0000
  H   H1735     1.0  0.72743  0.19960  0.37477  1.0000
  O   O625      1.0  0.74277  0.18402  0.37477  1.0000
  H   H1736     1.0  0.75811  0.19960  0.37477  1.0000
  H   H1737     1.0  0.72743  0.19960  0.43739  1.0000
  O   O626      1.0  0.74277  0.18402  0.43739  1.0000
  H   H1738     1.0  0.75811  0.19960  0.43739  1.0000
  H   H1739     1.0  0.72743  0.19960  0.50000  1.0000
  O   O627      1.0  0.74277  0.18402  0.50000  1.0000
  H   H1740     1.0  0.75811  0.19960  0.50000  1.0000
  H   H1741     1.0  0.72743  0.19960  0.56261  1.0000
  O   O628      1.0  0.74277  0.18402  0.56261  1.0000
  H   H1742     1.0  0.75811  0.19960  0.56261  1.0000
  H   H1743     1.0  0.72743  0.19960  0.62523  1.0000
  O   O629      1.0  0.74277  0.18402  0.62523  1.0000
  H   H1744     1.0  0.75811  0.19960  0.62523  1.0000
  H   H1745     1.0  0.72743  0.19960  0.68784  1.0000
  O   O630      1.0  0.74277  0.18402  0.68784  1.0000
  H   H1746     1.0  0.75811  0.19960  0.68784  1.0000
  H   H1747     1.0  0.72743  0.19960  0.75045  1.0000
  O   O631      1.0  0.74277  0.18402  0.75045  1.0000
  H   H1748     1.0  0.75811  0.19960  0.75045  1.0000
  H   H1749     1.0  0.72743  0.19960  0.81307  1.0000
  O   O632      1.0  0.74277  0.18402  0.81307  1.0000
  H   H1750     1.0  0.75811  0.19960  0.81307  1.0000
  H   H1751     1.0  0.72743  0.19960  0.87568  1.0000
  O   O633      1.0  0.74277  0.18402  0.87568  1.0000
  H   H1752     1.0  0.75811  0.19960  0.87568  1.0000
  H   H1753     1.0  0.72743  0.26124  0.12432  1.0000
  O   O634      1.0  0.74277  0.24566  0.12432  1.0000
  H   H1754     1.0  0.75811  0.26124  0.12432  1.0000
  H   H1755     1.0  0.72743  0.26124  0.18693  1.0000
  O   O635      1.0  0.74277  0.24566  0.18693  1.0000
  H   H1756     1.0  0.75811  0.26124  0.18693  1.0000
  H   H1757     1.0  0.72743  0.26124  0.31216  1.0000
  O   O636      1.0  0.74277  0.24566  0.31216  1.0000
  H   H1758     1.0  0.75811  0.26124  0.31216  1.0000
  H   H1759     1.0  0.72743  0.26124  0.37477  1.0000
  O   O637      1.0  0.74277  0.24566  0.37477  1.0000
  H   H1760     1.0  0.75811  0.26124  0.37477  1.0000
  H   H1761     1.0  0.72743  0.26124  0.50000  1.0000
  O   O638      1.0  0.74277  0.24566  0.50000  1.0000
  H   H1762     1.0  0.75811  0.26124  0.50000  1.0000
  H   H1763     1.0  0.72743  0.26124  0.62523  1.0000
  O   O639      1.0  0.74277  0.24566  0.62523  1.0000
  H   H1764     1.0  0.75811  0.26124  0.62523  1.0000
  H   H1765     1.0  0.72743  0.26124  0.75045  1.0000
  O   O640      1.0  0.74277  0.24566  0.75045  1.0000
  H   H1766     1.0  0.75811  0.26124  0.75045  1.0000
  H   H1767     1.0  0.72743  0.26124  0.81307  1.0000
  O   O641      1.0  0.74277  0.24566  0.81307  1.0000
  H   H1768     1.0  0.75811  0.26124  0.81307  1.0000
  H   H1769     1.0  0.72743  0.26124  0.87568  1.0000
  O   O642      1.0  0.74277  0.24566  0.87568  1.0000
  H   H1770     1.0  0.75811  0.26124  0.87568  1.0000
  H   H1771     1.0  0.72743  0.32287  0.12432  1.0000
  O   O643      1.0  0.74277  0.30730  0.12432  1.0000
  H   H1772     1.0  0.75811  0.32287  0.12432  1.0000
  H   H1773     1.0  0.72743  0.32287  0.18693  1.0000
  O   O644      1.0  0.74277  0.30730  0.18693  1.0000
  H   H1774     1.0  0.75811  0.32287  0.18693  1.0000
  H   H1775     1.0  0.72743  0.32287  0.75045  1.0000
  O   O645      1.0  0.74277  0.30730  0.75045  1.0000
  H   H1776     1.0  0.75811  0.32287  0.75045  1.0000
  H   H1777     1.0  0.72743  0.32287  0.81307  1.0000
  O   O646      1.0  0.74277  0.30730  0.81307  1.0000
  H   H1778     1.0  0.75811  0.32287  0.81307  1.0000
  H   H1779     1.0  0.72743  0.32287  0.87568  1.0000
  O   O647      1.0  0.74277  0.30730  0.87568  1.0000
  H   H1780     1.0  0.75811  0.32287  0.87568  1.0000
  H   H1781     1.0  0.72743  0.38451  0.12432  1.0000
  O   O648      1.0  0.74277  0.36894  0.12432  1.0000
  H   H1782     1.0  0.75811  0.38451  0.12432  1.0000
  H   H1783     1.0  0.72743  0.38451  0.18693  1.0000
  O   O649      1.0  0.74277  0.36894  0.18693  1.0000
  H   H1784     1.0  0.75811  0.38451  0.18693  1.0000
  H   H1785     1.0  0.72743  0.38451  0.24955  1.0000
  O   O650      1.0  0.74277  0.36894  0.24955  1.0000
  H   H1786     1.0  0.75811  0.38451  0.24955  1.0000
  H   H1787     1.0  0.72743  0.38451  0.81307  1.0000
  O   O651      1.0  0.74277  0.36894  0.81307  1.0000
  H   H1788     1.0  0.75811  0.38451  0.81307  1.0000
  H   H1789     1.0  0.72743  0.38451  0.87568  1.0000
  O   O652      1.0  0.74277  0.36894  0.87568  1.0000
  H   H1790     1.0  0.75811  0.38451  0.87568  1.0000
  H   H1791     1.0  0.72743  0.44615  0.12432  1.0000
  O   O653      1.0  0.74277  0.43057  0.12432  1.0000
  H   H1792     1.0  0.75811  0.44615  0.12432  1.0000
  H   H1793     1.0  0.72743  0.44615  0.18693  1.0000
  O   O654      1.0  0.74277  0.43057  0.18693  1.0000
  H   H1794     1.0  0.75811  0.44615  0.18693  1.0000
  H   H1795     1.0  0.72743  0.44615  0.87568  1.0000
  O   O655      1.0  0.74277  0.43057  0.87568  1.0000
  H   H1796     1.0  0.75811  0.44615  0.87568  1.0000
  H   H1797     1.0  0.72743  0.50779  0.12432  1.0000
  O   O656      1.0  0.74277  0.49221  0.12432  1.0000
  H   H1798     1.0  0.75811  0.50779  0.12432  1.0000
  H   H1799     1.0  0.72743  0.50779  0.18693  1.0000
  O   O657      1.0  0.74277  0.49221  0.18693  1.0000
  H   H1800     1.0  0.75811  0.50779  0.18693  1.0000
  H   H1801     1.0  0.72743  0.50779  0.24955  1.0000
  O   O658      1.0  0.74277  0.49221  0.24955  1.0000
  H   H1802     1.0  0.75811  0.50779  0.24955  1.0000
  H   H1803     1.0  0.72743  0.50779  0.81307  1.0000
  O   O659      1.0  0.74277  0.49221  0.81307  1.0000
  H   H1804     1.0  0.75811  0.50779  0.81307  1.0000
  H   H1805     1.0  0.72743  0.50779  0.87568  1.0000
  O   O660      1.0  0.74277  0.49221  0.87568  1.0000
  H   H1806     1.0  0.75811  0.50779  0.87568  1.0000
  H   H1807     1.0  0.72743  0.56943  0.12432  1.0000
  O   O661      1.0  0.74277  0.55385  0.12432  1.0000
  H   H1808     1.0  0.75811  0.56943  0.12432  1.0000
  H   H1809     1.0  0.72743  0.56943  0.18693  1.0000
  O   O662      1.0  0.74277  0.55385  0.18693  1.0000
  H   H1810     1.0  0.75811  0.56943  0.18693  1.0000
  H   H1811     1.0  0.72743  0.56943  0.87568  1.0000
  O   O663      1.0  0.74277  0.55385  0.87568  1.0000
  H   H1812     1.0  0.75811  0.56943  0.87568  1.0000
  H   H1813     1.0  0.72743  0.63106  0.12432  1.0000
  O   O664      1.0  0.74277  0.61549  0.12432  1.0000
  H   H1814     1.0  0.75811  0.63106  0.12432  1.0000
  H   H1815     1.0  0.72743  0.63106  0.18693  1.0000
  O   O665      1.0  0.74277  0.61549  0.18693  1.0000
  H   H1816     1.0  0.75811  0.63106  0.18693  1.0000
  H   H1817     1.0  0.72743  0.63106  0.24955  1.0000
  O   O666      1.0  0.74277  0.61549  0.24955  1.0000
  H   H1818     1.0  0.75811  0.63106  0.24955  1.0000
  H   H1819     1.0  0.72743  0.63106  0.81307  1.0000
  O   O667      1.0  0.74277  0.61549  0.81307  1.0000
  H   H1820     1.0  0.75811  0.63106  0.81307  1.0000
  H   H1821     1.0  0.72743  0.63106  0.87568  1.0000
  O   O668      1.0  0.74277  0.61549  0.87568  1.0000
  H   H1822     1.0  0.75811  0.63106  0.87568  1.0000
  H   H1823     1.0  0.72743  0.69270  0.12432  1.0000
  O   O669      1.0  0.74277  0.67713  0.12432  1.0000
  H   H1824     1.0  0.75811  0.69270  0.12432  1.0000
  H   H1825     1.0  0.72743  0.69270  0.18693  1.0000
  O   O670      1.0  0.74277  0.67713  0.18693  1.0000
  H   H1826     1.0  0.75811  0.69270  0.18693  1.0000
  H   H1827     1.0  0.72743  0.69270  0.75045  1.0000
  O   O671      1.0  0.74277  0.67713  0.75045  1.0000
  H   H1828     1.0  0.75811  0.69270  0.75045  1.0000
  H   H1829     1.0  0.72743  0.69270  0.81307  1.0000
  O   O672      1.0  0.74277  0.67713  0.81307  1.0000
  H   H1830     1.0  0.75811  0.69270  0.81307  1.0000
  H   H1831     1.0  0.72743  0.69270  0.87568  1.0000
  O   O673      1.0  0.74277  0.67713  0.87568  1.0000
  H   H1832     1.0  0.75811  0.69270  0.87568  1.0000
  H   H1833     1.0  0.72743  0.75434  0.12432  1.0000
  O   O674      1.0  0.74277  0.73876  0.12432  1.0000
  H   H1834     1.0  0.75811  0.75434  0.12432  1.0000
  H   H1835     1.0  0.72743  0.75434  0.18693  1.0000
  O   O675      1.0  0.74277  0.73876  0.18693  1.0000
  H   H1836     1.0  0.75811  0.75434  0.18693  1.0000
  H   H1837     1.0  0.72743  0.75434  0.31216  1.0000
  O   O676      1.0  0.74277  0.73876  0.31216  1.0000
  H   H1838     1.0  0.75811  0.75434  0.31216  1.0000
  H   H1839     1.0  0.72743  0.75434  0.37477  1.0000
  O   O677      1.0  0.74277  0.73876  0.37477  1.0000
  H   H1840     1.0  0.75811  0.75434  0.37477  1.0000
  H   H1841     1.0  0.72743  0.75434  0.50000  1.0000
  O   O678      1.0  0.74277  0.73876  0.50000  1.0000
  H   H1842     1.0  0.75811  0.75434  0.50000  1.0000
  H   H1843     1.0  0.72743  0.75434  0.62523  1.0000
  O   O679      1.0  0.74277  0.73876  0.62523  1.0000
  H   H1844     1.0  0.75811  0.75434  0.62523  1.0000
  H   H1845     1.0  0.72743  0.75434  0.75045  1.0000
  O   O680      1.0  0.74277  0.73876  0.75045  1.0000
  H   H1846     1.0  0.75811  0.75434  0.75045  1.0000
  H   H1847     1.0  0.72743  0.75434  0.81307  1.0000
  O   O681      1.0  0.74277  0.73876  0.81307  1.0000
  H   H1848     1.0  0.75811  0.75434  0.81307  1.0000
  H   H1849     1.0  0.72743  0.75434  0.87568  1.0000
  O   O682      1.0  0.74277  0.73876  0.87568  1.0000
  H   H1850     1.0  0.75811  0.75434  0.87568  1.0000
  H   H1851     1.0  0.72743  0.81598  0.12432  1.0000
  O   O683      1.0  0.74277  0.80040  0.12432  1.0000
  H   H1852     1.0  0.75811  0.81598  0.12432  1.0000
  H   H1853     1.0  0.72743  0.81598  0.18693  1.0000
  O   O684      1.0  0.74277  0.80040  0.18693  1.0000
  H   H1854     1.0  0.75811  0.81598  0.18693  1.0000
  H   H1855     1.0  0.72743  0.81598  0.24955  1.0000
  O   O685      1.0  0.74277  0.80040  0.24955  1.0000
  H   H1856     1.0  0.75811  0.81598  0.24955  1.0000
  H   H1857     1.0  0.72743  0.81598  0.31216  1.0000
  O   O686      1.0  0.74277  0.80040  0.31216  1.0000
  H   H1858     1.0  0.75811  0.81598  0.31216  1.0000
  H   H1859     1.0  0.72743  0.81598  0.37477  1.0000
  O   O687      1.0  0.74277  0.80040  0.37477  1.0000
  H   H1860     1.0  0.75811  0.81598  0.37477  1.0000
  H   H1861     1.0  0.72743  0.81598  0.43739  1.0000
  O   O688      1.0  0.74277  0.80040  0.43739  1.0000
  H   H1862     1.0  0.75811  0.81598  0.43739  1.0000
  H   H1863     1.0  0.72743  0.81598  0.50000  1.0000
  O   O689      1.0  0.74277  0.80040  0.50000  1.0000
  H   H1864     1.0  0.75811  0.81598  0.50000  1.0000
  H   H1865     1.0  0.72743  0.81598  0.56261  1.0000
  O   O690      1.0  0.74277  0.80040  0.56261  1.0000
  H   H1866     1.0  0.75811  0.81598  0.56261  1.0000
  H   H1867     1.0  0.72743  0.81598  0.62523  1.0000
  O   O691      1.0  0.74277  0.80040  0.62523  1.0000
  H   H1868     1.0  0.75811  0.81598  0.62523  1.0000
  H   H1869     1.0  0.72743  0.81598  0.68784  1.0000
  O   O692      1.0  0.74277  0.80040  0.68784  1.0000
  H   H1870     1.0  0.75811  0.81598  0.68784  1.0000
  H   H1871     1.0  0.72743  0.81598  0.75045  1.0000
  O   O693      1.0  0.74277  0.80040  0.75045  1.0000
  H   H1872     1.0  0.75811  0.81598  0.75045  1.0000
  H   H1873     1.0  0.72743  0.81598  0.81307  1.0000
  O   O694      1.0  0.74277  0.80040  0.81307  1.0000
  H   H1874     1.0  0.75811  0.81598  0.81307  1.0000
  H   H1875     1.0  0.72743  0.81598  0.87568  1.0000
  O   O695      1.0  0.74277  0.80040  0.87568  1.0000
  H   H1876     1.0  0.75811  0.81598  0.87568  1.0000
  H   H1877     1.0  0.72743  0.87761  0.18693  1.0000
  O   O696      1.0  0.74277  0.86204  0.18693  1.0000
  H   H1878     1.0  0.75811  0.87761  0.18693  1.0000
  H   H1879     1.0  0.72743  0.87761  0.24955  1.0000
  O   O697      1.0  0.74277  0.86204  0.24955  1.0000
  H   H1880     1.0  0.75811  0.87761  0.24955  1.0000
  H   H1881     1.0  0.72743  0.87761  0.31216  1.0000
  O   O698      1.0  0.74277  0.86204  0.31216  1.0000
  H   H1882     1.0  0.75811  0.87761  0.31216  1.0000
  H   H1883     1.0  0.72743  0.87761  0.37477  1.0000
  O   O699      1.0  0.74277  0.86204  0.37477  1.0000
  H   H1884     1.0  0.75811  0.87761  0.37477  1.0000
  H   H1885     1.0  0.72743  0.87761  0.43739  1.0000
  O   O700      1.0  0.74277  0.86204  0.43739  1.0000
  H   H1886     1.0  0.75811  0.87761  0.43739  1.0000
  H   H1887     1.0  0.72743  0.87761  0.50000  1.0000
  O   O701      1.0  0.74277  0.86204  0.50000  1.0000
  H   H1888     1.0  0.75811  0.87761  0.50000  1.0000
  H   H1889     1.0  0.72743  0.87761  0.56261  1.0000
  O   O702      1.0  0.74277  0.86204  0.56261  1.0000
  H   H1890     1.0  0.75811  0.87761  0.56261  1.0000
  H   H1891     1.0  0.72743  0.87761  0.62523  1.0000
  O   O703      1.0  0.74277  0.86204  0.62523  1.0000
  H   H1892     1.0  0.75811  0.87761  0.62523  1.0000
  H   H1893     1.0  0.72743  0.87761  0.68784  1.0000
  O   O704      1.0  0.74277  0.86204  0.68784  1.0000
  H   H1894     1.0  0.75811  0.87761  0.68784  1.0000
  H   H1895     1.0  0.72743  0.87761  0.75045  1.0000
  O   O705      1.0  0.74277  0.86204  0.75045  1.0000
  H   H1896     1.0  0.75811  0.87761  0.75045  1.0000
  H   H1897     1.0  0.72743  0.87761  0.81307  1.0000
  O   O706      1.0  0.74277  0.86204  0.81307  1.0000
  H   H1898     1.0  0.75811  0.87761  0.81307  1.0000
  H   H1899     1.0  0.78812  0.19960  0.12432  1.0000
  O   O707      1.0  0.80346  0.18402  0.12432  1.0000
  H   H1900     1.0  0.81880  0.19960  0.12432  1.0000
  H   H1901     1.0  0.78812  0.19960  0.18693  1.0000
  O   O708      1.0  0.80346  0.18402  0.18693  1.0000
  H   H1902     1.0  0.81880  0.19960  0.18693  1.0000
  H   H1903     1.0  0.78812  0.19960  0.24955  1.0000
  O   O709      1.0  0.80346  0.18402  0.24955  1.0000
  H   H1904     1.0  0.81880  0.19960  0.24955  1.0000
  H   H1905     1.0  0.78812  0.19960  0.31216  1.0000
  O   O710      1.0  0.80346  0.18402  0.31216  1.0000
  H   H1906     1.0  0.81880  0.19960  0.31216  1.0000
  H   H1907     1.0  0.78812  0.19960  0.37477  1.0000
  O   O711      1.0  0.80346  0.18402  0.37477  1.0000
  H   H1908     1.0  0.81880  0.19960  0.37477  1.0000
  H   H1909     1.0  0.78812  0.19960  0.43739  1.0000
  O   O712      1.0  0.80346  0.18402  0.43739  1.0000
  H   H1910     1.0  0.81880  0.19960  0.43739  1.0000
  H   H1911     1.0  0.78812  0.19960  0.50000  1.0000
  O   O713      1.0  0.80346  0.18402  0.50000  1.0000
  H   H1912     1.0  0.81880  0.19960  0.50000  1.0000
  H   H1913     1.0  0.78812  0.19960  0.56261  1.0000
  O   O714      1.0  0.80346  0.18402  0.56261  1.0000
  H   H1914     1.0  0.81880  0.19960  0.56261  1.0000
  H   H1915     1.0  0.78812  0.19960  0.62523  1.0000
  O   O715      1.0  0.80346  0.18402  0.62523  1.0000
  H   H1916     1.0  0.81880  0.19960  0.62523  1.0000
  H   H1917     1.0  0.78812  0.19960  0.68784  1.0000
  O   O716      1.0  0.80346  0.18402  0.68784  1.0000
  H   H1918     1.0  0.81880  0.19960  0.68784  1.0000
  H   H1919     1.0  0.78812  0.19960  0.75045  1.0000
  O   O717      1.0  0.80346  0.18402  0.75045  1.0000
  H   H1920     1.0  0.81880  0.19960  0.75045  1.0000
  H   H1921     1.0  0.78812  0.19960  0.81307  1.0000
  O   O718      1.0  0.80346  0.18402  0.81307  1.0000
  H   H1922     1.0  0.81880  0.19960  0.81307  1.0000
  H   H1923     1.0  0.78812  0.19960  0.87568  1.0000
  O   O719      1.0  0.80346  0.18402  0.87568  1.0000
  H   H1924     1.0  0.81880  0.19960  0.87568  1.0000
  H   H1925     1.0  0.78812  0.26124  0.12432  1.0000
  O   O720      1.0  0.80346  0.24566  0.12432  1.0000
  H   H1926     1.0  0.81880  0.26124  0.12432  1.0000
  H   H1927     1.0  0.78812  0.26124  0.18693  1.0000
  O   O721      1.0  0.80346  0.24566  0.18693  1.0000
  H   H1928     1.0  0.81880  0.26124  0.18693  1.0000
  H   H1929     1.0  0.78812  0.26124  0.24955  1.0000
  O   O722      1.0  0.80346  0.24566  0.24955  1.0000
  H   H1930     1.0  0.81880  0.26124  0.24955  1.0000
  H   H1931     1.0  0.78812  0.26124  0.31216  1.0000
  O   O723      1.0  0.80346  0.24566  0.31216  1.0000
  H   H1932     1.0  0.81880  0.26124  0.31216  1.0000
  H   H1933     1.0  0.78812  0.26124  0.37477  1.0000
  O   O724      1.0  0.80346  0.24566  0.37477  1.0000
  H   H1934     1.0  0.81880  0.26124  0.37477  1.0000
  H   H1935     1.0  0.78812  0.26124  0.43739  1.0000
  O   O725      1.0  0.80346  0.24566  0.43739  1.0000
  H   H1936     1.0  0.81880  0.26124  0.43739  1.0000
  H   H1937     1.0  0.78812  0.26124  0.50000  1.0000
  O   O726      1.0  0.80346  0.24566  0.50000  1.0000
  H   H1938     1.0  0.81880  0.26124  0.50000  1.0000
  H   H1939     1.0  0.78812  0.26124  0.62523  1.0000
  O   O727      1.0  0.80346  0.24566  0.62523  1.0000
  H   H1940     1.0  0.81880  0.26124  0.62523  1.0000
  H   H1941     1.0  0.78812  0.26124  0.75045  1.0000
  O   O728      1.0  0.80346  0.24566  0.75045  1.0000
  H   H1942     1.0  0.81880  0.26124  0.75045  1.0000
  H   H1943     1.0  0.78812  0.26124  0.81307  1.0000
  O   O729      1.0  0.80346  0.24566  0.81307  1.0000
  H   H1944     1.0  0.81880  0.26124  0.81307  1.0000
  H   H1945     1.0  0.78812  0.26124  0.87568  1.0000
  O   O730      1.0  0.80346  0.24566  0.87568  1.0000
  H   H1946     1.0  0.81880  0.26124  0.87568  1.0000
  H   H1947     1.0  0.78812  0.32287  0.12432  1.0000
  O   O731      1.0  0.80346  0.30730  0.12432  1.0000
  H   H1948     1.0  0.81880  0.32287  0.12432  1.0000
  H   H1949     1.0  0.78812  0.32287  0.18693  1.0000
  O   O732      1.0  0.80346  0.30730  0.18693  1.0000
  H   H1950     1.0  0.81880  0.32287  0.18693  1.0000
  H   H1951     1.0  0.78812  0.32287  0.75045  1.0000
  O   O733      1.0  0.80346  0.30730  0.75045  1.0000
  H   H1952     1.0  0.81880  0.32287  0.75045  1.0000
  H   H1953     1.0  0.78812  0.32287  0.81307  1.0000
  O   O734      1.0  0.80346  0.30730  0.81307  1.0000
  H   H1954     1.0  0.81880  0.32287  0.81307  1.0000
  H   H1955     1.0  0.78812  0.32287  0.87568  1.0000
  O   O735      1.0  0.80346  0.30730  0.87568  1.0000
  H   H1956     1.0  0.81880  0.32287  0.87568  1.0000
  H   H1957     1.0  0.78812  0.38451  0.12432  1.0000
  O   O736      1.0  0.80346  0.36894  0.12432  1.0000
  H   H1958     1.0  0.81880  0.38451  0.12432  1.0000
  H   H1959     1.0  0.78812  0.38451  0.18693  1.0000
  O   O737      1.0  0.80346  0.36894  0.18693  1.0000
  H   H1960     1.0  0.81880  0.38451  0.18693  1.0000
  H   H1961     1.0  0.78812  0.38451  0.24955  1.0000
  O   O738      1.0  0.80346  0.36894  0.24955  1.0000
  H   H1962     1.0  0.81880  0.38451  0.24955  1.0000
  H   H1963     1.0  0.78812  0.38451  0.75045  1.0000
  O   O739      1.0  0.80346  0.36894  0.75045  1.0000
  H   H1964     1.0  0.81880  0.38451  0.75045  1.0000
  H   H1965     1.0  0.78812  0.38451  0.81307  1.0000
  O   O740      1.0  0.80346  0.36894  0.81307  1.0000
  H   H1966     1.0  0.81880  0.38451  0.81307  1.0000
  H   H1967     1.0  0.78812  0.38451  0.87568  1.0000
  O   O741      1.0  0.80346  0.36894  0.87568  1.0000
  H   H1968     1.0  0.81880  0.38451  0.87568  1.0000
  H   H1969     1.0  0.78812  0.44615  0.12432  1.0000
  O   O742      1.0  0.80346  0.43057  0.12432  1.0000
  H   H1970     1.0  0.81880  0.44615  0.12432  1.0000
  H   H1971     1.0  0.78812  0.44615  0.18693  1.0000
  O   O743      1.0  0.80346  0.43057  0.18693  1.0000
  H   H1972     1.0  0.81880  0.44615  0.18693  1.0000
  H   H1973     1.0  0.78812  0.44615  0.31216  1.0000
  O   O744      1.0  0.80346  0.43057  0.31216  1.0000
  H   H1974     1.0  0.81880  0.44615  0.31216  1.0000
  H   H1975     1.0  0.78812  0.44615  0.81307  1.0000
  O   O745      1.0  0.80346  0.43057  0.81307  1.0000
  H   H1976     1.0  0.81880  0.44615  0.81307  1.0000
  H   H1977     1.0  0.78812  0.44615  0.87568  1.0000
  O   O746      1.0  0.80346  0.43057  0.87568  1.0000
  H   H1978     1.0  0.81880  0.44615  0.87568  1.0000
  H   H1979     1.0  0.78812  0.50779  0.12432  1.0000
  O   O747      1.0  0.80346  0.49221  0.12432  1.0000
  H   H1980     1.0  0.81880  0.50779  0.12432  1.0000
  H   H1981     1.0  0.78812  0.50779  0.18693  1.0000
  O   O748      1.0  0.80346  0.49221  0.18693  1.0000
  H   H1982     1.0  0.81880  0.50779  0.18693  1.0000
  H   H1983     1.0  0.78812  0.50779  0.24955  1.0000
  O   O749      1.0  0.80346  0.49221  0.24955  1.0000
  H   H1984     1.0  0.81880  0.50779  0.24955  1.0000
  H   H1985     1.0  0.78812  0.50779  0.75045  1.0000
  O   O750      1.0  0.80346  0.49221  0.75045  1.0000
  H   H1986     1.0  0.81880  0.50779  0.75045  1.0000
  H   H1987     1.0  0.78812  0.50779  0.81307  1.0000
  O   O751      1.0  0.80346  0.49221  0.81307  1.0000
  H   H1988     1.0  0.81880  0.50779  0.81307  1.0000
  H   H1989     1.0  0.78812  0.50779  0.87568  1.0000
  O   O752      1.0  0.80346  0.49221  0.87568  1.0000
  H   H1990     1.0  0.81880  0.50779  0.87568  1.0000
  H   H1991     1.0  0.78812  0.56943  0.12432  1.0000
  O   O753      1.0  0.80346  0.55385  0.12432  1.0000
  H   H1992     1.0  0.81880  0.56943  0.12432  1.0000
  H   H1993     1.0  0.78812  0.56943  0.18693  1.0000
  O   O754      1.0  0.80346  0.55385  0.18693  1.0000
  H   H1994     1.0  0.81880  0.56943  0.18693  1.0000
  H   H1995     1.0  0.78812  0.56943  0.31216  1.0000
  O   O755      1.0  0.80346  0.55385  0.31216  1.0000
  H   H1996     1.0  0.81880  0.56943  0.31216  1.0000
  H   H1997     1.0  0.78812  0.56943  0.81307  1.0000
  O   O756      1.0  0.80346  0.55385  0.81307  1.0000
  H   H1998     1.0  0.81880  0.56943  0.81307  1.0000
  H   H1999     1.0  0.78812  0.56943  0.87568  1.0000
  O   O757      1.0  0.80346  0.55385  0.87568  1.0000
  H   H2000     1.0  0.81880  0.56943  0.87568  1.0000
  H   H2001     1.0  0.78812  0.63106  0.12432  1.0000
  O   O758      1.0  0.80346  0.61549  0.12432  1.0000
  H   H2002     1.0  0.81880  0.63106  0.12432  1.0000
  H   H2003     1.0  0.78812  0.63106  0.18693  1.0000
  O   O759      1.0  0.80346  0.61549  0.18693  1.0000
  H   H2004     1.0  0.81880  0.63106  0.18693  1.0000
  H   H2005     1.0  0.78812  0.63106  0.24955  1.0000
  O   O760      1.0  0.80346  0.61549  0.24955  1.0000
  H   H2006     1.0  0.81880  0.63106  0.24955  1.0000
  H   H2007     1.0  0.78812  0.63106  0.75045  1.0000
  O   O761      1.0  0.80346  0.61549  0.75045  1.0000
  H   H2008     1.0  0.81880  0.63106  0.75045  1.0000
  H   H2009     1.0  0.78812  0.63106  0.81307  1.0000
  O   O762      1.0  0.80346  0.61549  0.81307  1.0000
  H   H2010     1.0  0.81880  0.63106  0.81307  1.0000
  H   H2011     1.0  0.78812  0.63106  0.87568  1.0000
  O   O763      1.0  0.80346  0.61549  0.87568  1.0000
  H   H2012     1.0  0.81880  0.63106  0.87568  1.0000
  H   H2013     1.0  0.78812  0.69270  0.12432  1.0000
  O   O764      1.0  0.80346  0.67713  0.12432  1.0000
  H   H2014     1.0  0.81880  0.69270  0.12432  1.0000
  H   H2015     1.0  0.78812  0.69270  0.18693  1.0000
  O   O765      1.0  0.80346  0.67713  0.18693  1.0000
  H   H2016     1.0  0.81880  0.69270  0.18693  1.0000
  H   H2017     1.0  0.78812  0.69270  0.75045  1.0000
  O   O766      1.0  0.80346  0.67713  0.75045  1.0000
  H   H2018     1.0  0.81880  0.69270  0.75045  1.0000
  H   H2019     1.0  0.78812  0.69270  0.81307  1.0000
  O   O767      1.0  0.80346  0.67713  0.81307  1.0000
  H   H2020     1.0  0.81880  0.69270  0.81307  1.0000
  H   H2021     1.0  0.78812  0.69270  0.87568  1.0000
  O   O768      1.0  0.80346  0.67713  0.87568  1.0000
  H   H2022     1.0  0.81880  0.69270  0.87568  1.0000
  H   H2023     1.0  0.78812  0.75434  0.12432  1.0000
  O   O769      1.0  0.80346  0.73876  0.12432  1.0000
  H   H2024     1.0  0.81880  0.75434  0.12432  1.0000
  H   H2025     1.0  0.78812  0.75434  0.18693  1.0000
  O   O770      1.0  0.80346  0.73876  0.18693  1.0000
  H   H2026     1.0  0.81880  0.75434  0.18693  1.0000
  H   H2027     1.0  0.78812  0.75434  0.24955  1.0000
  O   O771      1.0  0.80346  0.73876  0.24955  1.0000
  H   H2028     1.0  0.81880  0.75434  0.24955  1.0000
  H   H2029     1.0  0.78812  0.75434  0.31216  1.0000
  O   O772      1.0  0.80346  0.73876  0.31216  1.0000
  H   H2030     1.0  0.81880  0.75434  0.31216  1.0000
  H   H2031     1.0  0.78812  0.75434  0.37477  1.0000
  O   O773      1.0  0.80346  0.73876  0.37477  1.0000
  H   H2032     1.0  0.81880  0.75434  0.37477  1.0000
  H   H2033     1.0  0.78812  0.75434  0.43739  1.0000
  O   O774      1.0  0.80346  0.73876  0.43739  1.0000
  H   H2034     1.0  0.81880  0.75434  0.43739  1.0000
  H   H2035     1.0  0.78812  0.75434  0.50000  1.0000
  O   O775      1.0  0.80346  0.73876  0.50000  1.0000
  H   H2036     1.0  0.81880  0.75434  0.50000  1.0000
  H   H2037     1.0  0.78812  0.75434  0.62523  1.0000
  O   O776      1.0  0.80346  0.73876  0.62523  1.0000
  H   H2038     1.0  0.81880  0.75434  0.62523  1.0000
  H   H2039     1.0  0.78812  0.75434  0.75045  1.0000
  O   O777      1.0  0.80346  0.73876  0.75045  1.0000
  H   H2040     1.0  0.81880  0.75434  0.75045  1.0000
  H   H2041     1.0  0.78812  0.75434  0.81307  1.0000
  O   O778      1.0  0.80346  0.73876  0.81307  1.0000
  H   H2042     1.0  0.81880  0.75434  0.81307  1.0000
  H   H2043     1.0  0.78812  0.75434  0.87568  1.0000
  O   O779      1.0  0.80346  0.73876  0.87568  1.0000
  H   H2044     1.0  0.81880  0.75434  0.87568  1.0000
  H   H2045     1.0  0.78812  0.81598  0.12432  1.0000
  O   O780      1.0  0.80346  0.80040  0.12432  1.0000
  H   H2046     1.0  0.81880  0.81598  0.12432  1.0000
  H   H2047     1.0  0.78812  0.81598  0.18693  1.0000
  O   O781      1.0  0.80346  0.80040  0.18693  1.0000
  H   H2048     1.0  0.81880  0.81598  0.18693  1.0000
  H   H2049     1.0  0.78812  0.81598  0.24955  1.0000
  O   O782      1.0  0.80346  0.80040  0.24955  1.0000
  H   H2050     1.0  0.81880  0.81598  0.24955  1.0000
  H   H2051     1.0  0.78812  0.81598  0.31216  1.0000
  O   O783      1.0  0.80346  0.80040  0.31216  1.0000
  H   H2052     1.0  0.81880  0.81598  0.31216  1.0000
  H   H2053     1.0  0.78812  0.81598  0.37477  1.0000
  O   O784      1.0  0.80346  0.80040  0.37477  1.0000
  H   H2054     1.0  0.81880  0.81598  0.37477  1.0000
  H   H2055     1.0  0.78812  0.81598  0.43739  1.0000
  O   O785      1.0  0.80346  0.80040  0.43739  1.0000
  H   H2056     1.0  0.81880  0.81598  0.43739  1.0000
  H   H2057     1.0  0.78812  0.81598  0.50000  1.0000
  O   O786      1.0  0.80346  0.80040  0.50000  1.0000
  H   H2058     1.0  0.81880  0.81598  0.50000  1.0000
  H   H2059     1.0  0.78812  0.81598  0.56261  1.0000
  O   O787      1.0  0.80346  0.80040  0.56261  1.0000
  H   H2060     1.0  0.81880  0.81598  0.56261  1.0000
  H   H2061     1.0  0.78812  0.81598  0.62523  1.0000
  O   O788      1.0  0.80346  0.80040  0.62523  1.0000
  H   H2062     1.0  0.81880  0.81598  0.62523  1.0000
  H   H2063     1.0  0.78812  0.81598  0.68784  1.0000
  O   O789      1.0  0.80346  0.80040  0.68784  1.0000
  H   H2064     1.0  0.81880  0.81598  0.68784  1.0000
  H   H2065     1.0  0.78812  0.81598  0.75045  1.0000
  O   O790      1.0  0.80346  0.80040  0.75045  1.0000
  H   H2066     1.0  0.81880  0.81598  0.75045  1.0000
  H   H2067     1.0  0.78812  0.81598  0.81307  1.0000
  O   O791      1.0  0.80346  0.80040  0.81307  1.0000
  H   H2068     1.0  0.81880  0.81598  0.81307  1.0000
  H   H2069     1.0  0.78812  0.81598  0.87568  1.0000
  O   O792      1.0  0.80346  0.80040  0.87568  1.0000
  H   H2070     1.0  0.81880  0.81598  0.87568  1.0000
  H   H2071     1.0  0.84882  0.26124  0.18693  1.0000
  O   O793      1.0  0.86415  0.24566  0.18693  1.0000
  H   H2072     1.0  0.87949  0.26124  0.18693  1.0000
  H   H2073     1.0  0.84882  0.26124  0.24955  1.0000
  O   O794      1.0  0.86415  0.24566  0.24955  1.0000
  H   H2074     1.0  0.87949  0.26124  0.24955  1.0000
  H   H2075     1.0  0.84882  0.26124  0.31216  1.0000
  O   O795      1.0  0.86415  0.24566  0.31216  1.0000
  H   H2076     1.0  0.87949  0.26124  0.31216  1.0000
  H   H2077     1.0  0.84882  0.26124  0.37477  1.0000
  O   O796      1.0  0.86415  0.24566  0.37477  1.0000
  H   H2078     1.0  0.87949  0.26124  0.37477  1.0000
  H   H2079     1.0  0.84882  0.26124  0.43739  1.0000
  O   O797      1.0  0.86415  0.24566  0.43739  1.0000
  H   H2080     1.0  0.87949  0.26124  0.43739  1.0000
  H   H2081     1.0  0.84882  0.26124  0.50000  1.0000
  O   O798      1.0  0.86415  0.24566  0.50000  1.0000
  H   H2082     1.0  0.87949  0.26124  0.50000  1.0000
  H   H2083     1.0  0.84882  0.26124  0.56261  1.0000
  O   O799      1.0  0.86415  0.24566  0.56261  1.0000
  H   H2084     1.0  0.87949  0.26124  0.56261  1.0000
  H   H2085     1.0  0.84882  0.26124  0.62523  1.0000
  O   O800      1.0  0.86415  0.24566  0.62523  1.0000
  H   H2086     1.0  0.87949  0.26124  0.62523  1.0000
  H   H2087     1.0  0.84882  0.26124  0.68784  1.0000
  O   O801      1.0  0.86415  0.24566  0.68784  1.0000
  H   H2088     1.0  0.87949  0.26124  0.68784  1.0000
  H   H2089     1.0  0.84882  0.26124  0.75045  1.0000
  O   O802      1.0  0.86415  0.24566  0.75045  1.0000
  H   H2090     1.0  0.87949  0.26124  0.75045  1.0000
  H   H2091     1.0  0.84882  0.26124  0.81307  1.0000
  O   O803      1.0  0.86415  0.24566  0.81307  1.0000
  H   H2092     1.0  0.87949  0.26124  0.81307  1.0000
  H   H2093     1.0  0.84882  0.32287  0.18693  1.0000
  O   O804      1.0  0.86415  0.30730  0.18693  1.0000
  H   H2094     1.0  0.87949  0.32287  0.18693  1.0000
  H   H2095     1.0  0.84882  0.32287  0.24955  1.0000
  O   O805      1.0  0.86415  0.30730  0.24955  1.0000
  H   H2096     1.0  0.87949  0.32287  0.24955  1.0000
  H   H2097     1.0  0.84882  0.32287  0.31216  1.0000
  O   O806      1.0  0.86415  0.30730  0.31216  1.0000
  H   H2098     1.0  0.87949  0.32287  0.31216  1.0000
  H   H2099     1.0  0.84882  0.32287  0.37477  1.0000
  O   O807      1.0  0.86415  0.30730  0.37477  1.0000
  H   H2100     1.0  0.87949  0.32287  0.37477  1.0000
  H   H2101     1.0  0.84882  0.32287  0.43739  1.0000
  O   O808      1.0  0.86415  0.30730  0.43739  1.0000
  H   H2102     1.0  0.87949  0.32287  0.43739  1.0000
  H   H2103     1.0  0.84882  0.32287  0.50000  1.0000
  O   O809      1.0  0.86415  0.30730  0.50000  1.0000
  H   H2104     1.0  0.87949  0.32287  0.50000  1.0000
  H   H2105     1.0  0.84882  0.32287  0.56261  1.0000
  O   O810      1.0  0.86415  0.30730  0.56261  1.0000
  H   H2106     1.0  0.87949  0.32287  0.56261  1.0000
  H   H2107     1.0  0.84882  0.32287  0.62523  1.0000
  O   O811      1.0  0.86415  0.30730  0.62523  1.0000
  H   H2108     1.0  0.87949  0.32287  0.62523  1.0000
  H   H2109     1.0  0.84882  0.32287  0.68784  1.0000
  O   O812      1.0  0.86415  0.30730  0.68784  1.0000
  H   H2110     1.0  0.87949  0.32287  0.68784  1.0000
  H   H2111     1.0  0.84882  0.32287  0.75045  1.0000
  O   O813      1.0  0.86415  0.30730  0.75045  1.0000
  H   H2112     1.0  0.87949  0.32287  0.75045  1.0000
  H   H2113     1.0  0.84882  0.32287  0.81307  1.0000
  O   O814      1.0  0.86415  0.30730  0.81307  1.0000
  H   H2114     1.0  0.87949  0.32287  0.81307  1.0000
  H   H2115     1.0  0.84882  0.38451  0.18693  1.0000
  O   O815      1.0  0.86415  0.36894  0.18693  1.0000
  H   H2116     1.0  0.87949  0.38451  0.18693  1.0000
  H   H2117     1.0  0.84882  0.38451  0.24955  1.0000
  O   O816      1.0  0.86415  0.36894  0.24955  1.0000
  H   H2118     1.0  0.87949  0.38451  0.24955  1.0000
  H   H2119     1.0  0.84882  0.38451  0.31216  1.0000
  O   O817      1.0  0.86415  0.36894  0.31216  1.0000
  H   H2120     1.0  0.87949  0.38451  0.31216  1.0000
  H   H2121     1.0  0.84882  0.38451  0.37477  1.0000
  O   O818      1.0  0.86415  0.36894  0.37477  1.0000
  H   H2122     1.0  0.87949  0.38451  0.37477  1.0000
  H   H2123     1.0  0.84882  0.38451  0.43739  1.0000
  O   O819      1.0  0.86415  0.36894  0.43739  1.0000
  H   H2124     1.0  0.87949  0.38451  0.43739  1.0000
  H   H2125     1.0  0.84882  0.38451  0.50000  1.0000
  O   O820      1.0  0.86415  0.36894  0.50000  1.0000
  H   H2126     1.0  0.87949  0.38451  0.50000  1.0000
  H   H2127     1.0  0.84882  0.38451  0.56261  1.0000
  O   O821      1.0  0.86415  0.36894  0.56261  1.0000
  H   H2128     1.0  0.87949  0.38451  0.56261  1.0000
  H   H2129     1.0  0.84882  0.38451  0.62523  1.0000
  O   O822      1.0  0.86415  0.36894  0.62523  1.0000
  H   H2130     1.0  0.87949  0.38451  0.62523  1.0000
  H   H2131     1.0  0.84882  0.38451  0.68784  1.0000
  O   O823      1.0  0.86415  0.36894  0.68784  1.0000
  H   H2132     1.0  0.87949  0.38451  0.68784  1.0000
  H   H2133     1.0  0.84882  0.38451  0.75045  1.0000
  O   O824      1.0  0.86415  0.36894  0.75045  1.0000
  H   H2134     1.0  0.87949  0.38451  0.75045  1.0000
  H   H2135     1.0  0.84882  0.38451  0.81307  1.0000
  O   O825      1.0  0.86415  0.36894  0.81307  1.0000
  H   H2136     1.0  0.87949  0.38451  0.81307  1.0000
  H   H2137     1.0  0.84882  0.44615  0.18693  1.0000
  O   O826      1.0  0.86415  0.43057  0.18693  1.0000
  H   H2138     1.0  0.87949  0.44615  0.18693  1.0000
  H   H2139     1.0  0.84882  0.44615  0.24955  1.0000
  O   O827      1.0  0.86415  0.43057  0.24955  1.0000
  H   H2140     1.0  0.87949  0.44615  0.24955  1.0000
  H   H2141     1.0  0.84882  0.44615  0.31216  1.0000
  O   O828      1.0  0.86415  0.43057  0.31216  1.0000
  H   H2142     1.0  0.87949  0.44615  0.31216  1.0000
  H   H2143     1.0  0.84882  0.44615  0.37477  1.0000
  O   O829      1.0  0.86415  0.43057  0.37477  1.0000
  H   H2144     1.0  0.87949  0.44615  0.37477  1.0000
  H   H2145     1.0  0.84882  0.44615  0.43739  1.0000
  O   O830      1.0  0.86415  0.43057  0.43739  1.0000
  H   H2146     1.0  0.87949  0.44615  0.43739  1.0000
  H   H2147     1.0  0.84882  0.44615  0.50000  1.0000
  O   O831      1.0  0.86415  0.43057  0.50000  1.0000
  H   H2148     1.0  0.87949  0.44615  0.50000  1.0000
  H   H2149     1.0  0.84882  0.44615  0.56261  1.0000
  O   O832      1.0  0.86415  0.43057  0.56261  1.0000
  H   H2150     1.0  0.87949  0.44615  0.56261  1.0000
  H   H2151     1.0  0.84882  0.44615  0.62523  1.0000
  O   O833      1.0  0.86415  0.43057  0.62523  1.0000
  H   H2152     1.0  0.87949  0.44615  0.62523  1.0000
  H   H2153     1.0  0.84882  0.44615  0.68784  1.0000
  O   O834      1.0  0.86415  0.43057  0.68784  1.0000
  H   H2154     1.0  0.87949  0.44615  0.68784  1.0000
  H   H2155     1.0  0.84882  0.44615  0.75045  1.0000
  O   O835      1.0  0.86415  0.43057  0.75045  1.0000
  H   H2156     1.0  0.87949  0.44615  0.75045  1.0000
  H   H2157     1.0  0.84882  0.44615  0.81307  1.0000
  O   O836      1.0  0.86415  0.43057  0.81307  1.0000
  H   H2158     1.0  0.87949  0.44615  0.81307  1.0000
  H   H2159     1.0  0.84882  0.50779  0.18693  1.0000
  O   O837      1.0  0.86415  0.49221  0.18693  1.0000
  H   H2160     1.0  0.87949  0.50779  0.18693  1.0000
  H   H2161     1.0  0.84882  0.50779  0.24955  1.0000
  O   O838      1.0  0.86415  0.49221  0.24955  1.0000
  H   H2162     1.0  0.87949  0.50779  0.24955  1.0000
  H   H2163     1.0  0.84882  0.50779  0.31216  1.0000
  O   O839      1.0  0.86415  0.49221  0.31216  1.0000
  H   H2164     1.0  0.87949  0.50779  0.31216  1.0000
  H   H2165     1.0  0.84882  0.50779  0.37477  1.0000
  O   O840      1.0  0.86415  0.49221  0.37477  1.0000
  H   H2166     1.0  0.87949  0.50779  0.37477  1.0000
  H   H2167     1.0  0.84882  0.50779  0.43739  1.0000
  O   O841      1.0  0.86415  0.49221  0.43739  1.0000
  H   H2168     1.0  0.87949  0.50779  0.43739  1.0000
  H   H2169     1.0  0.84882  0.50779  0.50000  1.0000
  O   O842      1.0  0.86415  0.49221  0.50000  1.0000
  H   H2170     1.0  0.87949  0.50779  0.50000  1.0000
  H   H2171     1.0  0.84882  0.50779  0.56261  1.0000
  O   O843      1.0  0.86415  0.49221  0.56261  1.0000
  H   H2172     1.0  0.87949  0.50779  0.56261  1.0000
  H   H2173     1.0  0.84882  0.50779  0.62523  1.0000
  O   O844      1.0  0.86415  0.49221  0.62523  1.0000
  H   H2174     1.0  0.87949  0.50779  0.62523  1.0000
  H   H2175     1.0  0.84882  0.50779  0.68784  1.0000
  O   O845      1.0  0.86415  0.49221  0.68784  1.0000
  H   H2176     1.0  0.87949  0.50779  0.68784  1.0000
  H   H2177     1.0  0.84882  0.50779  0.75045  1.0000
  O   O846      1.0  0.86415  0.49221  0.75045  1.0000
  H   H2178     1.0  0.87949  0.50779  0.75045  1.0000
  H   H2179     1.0  0.84882  0.50779  0.81307  1.0000
  O   O847      1.0  0.86415  0.49221  0.81307  1.0000
  H   H2180     1.0  0.87949  0.50779  0.81307  1.0000
  H   H2181     1.0  0.84882  0.56943  0.18693  1.0000
  O   O848      1.0  0.86415  0.55385  0.18693  1.0000
  H   H2182     1.0  0.87949  0.56943  0.18693  1.0000
  H   H2183     1.0  0.84882  0.56943  0.24955  1.0000
  O   O849      1.0  0.86415  0.55385  0.24955  1.0000
  H   H2184     1.0  0.87949  0.56943  0.24955  1.0000
  H   H2185     1.0  0.84882  0.56943  0.31216  1.0000
  O   O850      1.0  0.86415  0.55385  0.31216  1.0000
  H   H2186     1.0  0.87949  0.56943  0.31216  1.0000
  H   H2187     1.0  0.84882  0.56943  0.37477  1.0000
  O   O851      1.0  0.86415  0.55385  0.37477  1.0000
  H   H2188     1.0  0.87949  0.56943  0.37477  1.0000
  H   H2189     1.0  0.84882  0.56943  0.43739  1.0000
  O   O852      1.0  0.86415  0.55385  0.43739  1.0000
  H   H2190     1.0  0.87949  0.56943  0.43739  1.0000
  H   H2191     1.0  0.84882  0.56943  0.50000  1.0000
  O   O853      1.0  0.86415  0.55385  0.50000  1.0000
  H   H2192     1.0  0.87949  0.56943  0.50000  1.0000
  H   H2193     1.0  0.84882  0.56943  0.56261  1.0000
  O   O854      1.0  0.86415  0.55385  0.56261  1.0000
  H   H2194     1.0  0.87949  0.56943  0.56261  1.0000
  H   H2195     1.0  0.84882  0.56943  0.62523  1.0000
  O   O855      1.0  0.86415  0.55385  0.62523  1.0000
  H   H2196     1.0  0.87949  0.56943  0.62523  1.0000
  H   H2197     1.0  0.84882  0.56943  0.68784  1.0000
  O   O856      1.0  0.86415  0.55385  0.68784  1.0000
  H   H2198     1.0  0.87949  0.56943  0.68784  1.0000
  H   H2199     1.0  0.84882  0.56943  0.75045  1.0000
  O   O857      1.0  0.86415  0.55385  0.75045  1.0000
  H   H2200     1.0  0.87949  0.56943  0.75045  1.0000
  H   H2201     1.0  0.84882  0.56943  0.81307  1.0000
  O   O858      1.0  0.86415  0.55385  0.81307  1.0000
  H   H2202     1.0  0.87949  0.56943  0.81307  1.0000
  H   H2203     1.0  0.84882  0.63106  0.18693  1.0000
  O   O859      1.0  0.86415  0.61549  0.18693  1.0000
  H   H2204     1.0  0.87949  0.63106  0.18693  1.0000
  H   H2205     1.0  0.84882  0.63106  0.24955  1.0000
  O   O860      1.0  0.86415  0.61549  0.24955  1.0000
  H   H2206     1.0  0.87949  0.63106  0.24955  1.0000
  H   H2207     1.0  0.84882  0.63106  0.31216  1.0000
  O   O861      1.0  0.86415  0.61549  0.31216  1.0000
  H   H2208     1.0  0.87949  0.63106  0.31216  1.0000
  H   H2209     1.0  0.84882  0.63106  0.37477  1.0000
  O   O862      1.0  0.86415  0.61549  0.37477  1.0000
  H   H2210     1.0  0.87949  0.63106  0.37477  1.0000
  H   H2211     1.0  0.84882  0.63106  0.43739  1.0000
  O   O863      1.0  0.86415  0.61549  0.43739  1.0000
  H   H2212     1.0  0.87949  0.63106  0.43739  1.0000
  H   H2213     1.0  0.84882  0.63106  0.50000  1.0000
  O   O864      1.0  0.86415  0.61549  0.50000  1.0000
  H   H2214     1.0  0.87949  0.63106  0.50000  1.0000
  H   H2215     1.0  0.84882  0.63106  0.56261  1.0000
  O   O865      1.0  0.86415  0.61549  0.56261  1.0000
  H   H2216     1.0  0.87949  0.63106  0.56261  1.0000
  H   H2217     1.0  0.84882  0.63106  0.62523  1.0000
  O   O866      1.0  0.86415  0.61549  0.62523  1.0000
  H   H2218     1.0  0.87949  0.63106  0.62523  1.0000
  H   H2219     1.0  0.84882  0.63106  0.68784  1.0000
  O   O867      1.0  0.86415  0.61549  0.68784  1.0000
  H   H2220     1.0  0.87949  0.63106  0.68784  1.0000
  H   H2221     1.0  0.84882  0.63106  0.75045  1.0000
  O   O868      1.0  0.86415  0.61549  0.75045  1.0000
  H   H2222     1.0  0.87949  0.63106  0.75045  1.0000
  H   H2223     1.0  0.84882  0.63106  0.81307  1.0000
  O   O869      1.0  0.86415  0.61549  0.81307  1.0000
  H   H2224     1.0  0.87949  0.63106  0.81307  1.0000
  H   H2225     1.0  0.84882  0.69270  0.18693  1.0000
  O   O870      1.0  0.86415  0.67713  0.18693  1.0000
  H   H2226     1.0  0.87949  0.69270  0.18693  1.0000
  H   H2227     1.0  0.84882  0.69270  0.24955  1.0000
  O   O871      1.0  0.86415  0.67713  0.24955  1.0000
  H   H2228     1.0  0.87949  0.69270  0.24955  1.0000
  H   H2229     1.0  0.84882  0.69270  0.31216  1.0000
  O   O872      1.0  0.86415  0.67713  0.31216  1.0000
  H   H2230     1.0  0.87949  0.69270  0.31216  1.0000
  H   H2231     1.0  0.84882  0.69270  0.37477  1.0000
  O   O873      1.0  0.86415  0.67713  0.37477  1.0000
  H   H2232     1.0  0.87949  0.69270  0.37477  1.0000
  H   H2233     1.0  0.84882  0.69270  0.43739  1.0000
  O   O874      1.0  0.86415  0.67713  0.43739  1.0000
  H   H2234     1.0  0.87949  0.69270  0.43739  1.0000
  H   H2235     1.0  0.84882  0.69270  0.50000  1.0000
  O   O875      1.0  0.86415  0.67713  0.50000  1.0000
  H   H2236     1.0  0.87949  0.69270  0.50000  1.0000
  H   H2237     1.0  0.84882  0.69270  0.56261  1.0000
  O   O876      1.0  0.86415  0.67713  0.56261  1.0000
  H   H2238     1.0  0.87949  0.69270  0.56261  1.0000
  H   H2239     1.0  0.84882  0.69270  0.62523  1.0000
  O   O877      1.0  0.86415  0.67713  0.62523  1.0000
  H   H2240     1.0  0.87949  0.69270  0.62523  1.0000
  H   H2241     1.0  0.84882  0.69270  0.68784  1.0000
  O   O878      1.0  0.86415  0.67713  0.68784  1.0000
  H   H2242     1.0  0.87949  0.69270  0.68784  1.0000
  H   H2243     1.0  0.84882  0.69270  0.75045  1.0000
  O   O879      1.0  0.86415  0.67713  0.75045  1.0000
  H   H2244     1.0  0.87949  0.69270  0.75045  1.0000
  H   H2245     1.0  0.84882  0.69270  0.81307  1.0000
  O   O880      1.0  0.86415  0.67713  0.81307  1.0000
  H   H2246     1.0  0.87949  0.69270  0.81307  1.0000
  H   H2247     1.0  0.84882  0.75434  0.18693  1.0000
  O   O881      1.0  0.86415  0.73876  0.18693  1.0000
  H   H2248     1.0  0.87949  0.75434  0.18693  1.0000
  H   H2249     1.0  0.84882  0.75434  0.24955  1.0000
  O   O882      1.0  0.86415  0.73876  0.24955  1.0000
  H   H2250     1.0  0.87949  0.75434  0.24955  1.0000
  H   H2251     1.0  0.84882  0.75434  0.31216  1.0000
  O   O883      1.0  0.86415  0.73876  0.31216  1.0000
  H   H2252     1.0  0.87949  0.75434  0.31216  1.0000
  H   H2253     1.0  0.84882  0.75434  0.37477  1.0000
  O   O884      1.0  0.86415  0.73876  0.37477  1.0000
  H   H2254     1.0  0.87949  0.75434  0.37477  1.0000
  H   H2255     1.0  0.84882  0.75434  0.43739  1.0000
  O   O885      1.0  0.86415  0.73876  0.43739  1.0000
  H   H2256     1.0  0.87949  0.75434  0.43739  1.0000
  H   H2257     1.0  0.84882  0.75434  0.50000  1.0000
  O   O886      1.0  0.86415  0.73876  0.50000  1.0000
  H   H2258     1.0  0.87949  0.75434  0.50000  1.0000
  H   H2259     1.0  0.84882  0.75434  0.56261  1.0000
  O   O887      1.0  0.86415  0.73876  0.56261  1.0000
  H   H2260     1.0  0.87949  0.75434  0.56261  1.0000
  H   H2261     1.0  0.84882  0.75434  0.62523  1.0000
  O   O888      1.0  0.86415  0.73876  0.62523  1.0000
  H   H2262     1.0  0.87949  0.75434  0.62523  1.0000
  H   H2263     1.0  0.84882  0.75434  0.68784  1.0000
  O   O889      1.0  0.86415  0.73876  0.68784  1.0000
  H   H2264     1.0  0.87949  0.75434  0.68784  1.0000
  H   H2265     1.0  0.84882  0.75434  0.75045  1.0000
  O   O890      1.0  0.86415  0.73876  0.75045  1.0000
  H   H2266     1.0  0.87949  0.75434  0.75045  1.0000
  H   H2267     1.0  0.84882  0.75434  0.81307  1.0000
  O   O891      1.0  0.86415  0.73876  0.81307  1.0000
  H   H2268     1.0  0.87949  0.75434  0.81307  1.0000
