data_image0
_chemical_formula_structural       I240Pb64C81N81H487OH2OH2OH2OH2OH2OH2OH2OH2OH2OH2OH2OH2OH2OH2OH2OH2OH2OH2OH2OH2OH2OH2OH2OH2OH2OH2OH2OH2OH2OH2OH2OH2OH2OH2OH2OH2OH2OH2OH2OH2OH2OH2OH2OH2OH2OH2OH2OH2OH2OH2OH2OH2OH2OH2OH2OH2OH2OH2OH2OH2OH2OH2OH2OH2OH2OH2OH2OH2OH2OH2OH2OH2OH2OH2OH2OH2OH2OH2OH2OH2OH2OH2OH2OH2OH2OH2OH2OH2OH2OH2OH2OH2OH2OH2OH2OH2OH2OH2OH2OH2OH2OH2OH2OH2OH2OH2OH2OH2OH2OH2OH2OH2OH2OH2OH2OH2OH2OH2OH2OH2OH2OH2OH2OH2OH2OH2OH2OH2OH2OH2OH2OH2OH2OH2OH2OH2OH2OH2OH2OH2OH2OH2OH2OH2OH2OH2OH2OH2OH2OH2OH2OH2OH2OH2OH2OH2OH2OH2OH2OH2OH2OH2OH2OH2OH2OH2OH2OH2OH2OH2OH2OH2OH2OH2OH2OH2OH2OH2OH2OH2OH2OH2OH2OH2OH2OH2OH2OH2OH2OH2OH2OH2OH2OH2OH2OH2OH2OH2OH2OH2OH2OH2OH2OH2OH2OH2OH2OH2OH2OH2OH2OH2OH2OH2OH2OH2OH2OH2OH2OH2OH2OH2OH2OH2OH2OH2OH2OH2OH2OH2OH2OH2OH2OH2OH2OH2OH2OH2OH2OH2OH2OH2OH2OH2OH2OH2OH2OH2OH2OH2OH2OH2OH2OH2OH2OH2OH2OH2OH2OH2OH2OH2OH2OH2OH2OH2OH2OH2OH2OH2OH2OH2OH2OH2OH2OH2OH2OH2OH2OH2OH2OH2OH2OH2OH2OH2OH2OH2OH2OH2OH2OH2OH2OH2OH2OH2OH2OH2OH2OH2OH2OH2OH2OH2OH2OH2OH2OH2OH2OH2OH2OH2OH2OH2OH2OH2OH2OH2OH2OH2OH2OH2OH2OH2OH2OH2OH2OH2OH2OH2OH2OH2OH2OH2OH2OH2OH2OH2OH2OH2OH2OH2OH2OH2OH2OH2OH2OH2OH2OH2OH2OH2OH2OH2OH2OH2OH2OH2OH2OH2OH2OH2OH2OH2OH2OH2OH2OH2OH2OH2OH2OH2OH2OH2OH2OH2OH2OH2OH2OH2OH2OH2OH2OH2OH2OH2OH2OH2OH2OH2OH2OH2OH2OH2OH2OH2OH2OH2OH2OH2OH2OH2OH2OH2OH2OH2OH2OH2OH2OH2OH2OH2OH2OH2OH2OH2OH2OH2OH2OH2OH2OH2OH2OH2OH2OH2OH2OH2OH2OH2OH2OH2OH2OH2OH2OH2OH2OH2OH2OH2OH2OH2OH2OH2OH2OH2OH2OH2OH2OH2OH2OH2OH2OH2OH2OH2OH2OH2OH2OH2OH2OH2OH2OH2OH2OH2OH2OH2OH2OH2OH2OH2OH2OH2OH2OH2OH2OH2OH2OH2OH2OH2OH2OH2OH2OH2OH2OH2OH2OH2OH2OH2OH2OH2OH2OH2OH2OH2OH2OH2OH2OH2OH2OH2OH2OH2OH2OH2OH2OH2OH2OH2OH2OH2OH2OH2OH2OH2OH2OH2OH2OH2OH2OH2OH2OH2OH2OH2OH2OH2OH2OH2OH2OH2OH2OH2OH2OH2OH2OH2OH2OH2OH2OH2OH2OH2OH2OH2OH2OH2OH2OH2OH2OH2OH2OH2OH2OH2OH2OH2OH2OH2OH2OH2OH2OH2OH2OH2OH2OH2OH2OH2OH2OH2OH2OH2OH2OH2OH2OH2OH2OH2OH2OH2OH2OH2OH2OH2OH2OH2OH2OH2OH2OH2OH2OH2OH2OH2OH2OH2OH2OH2OH2OH2OH2OH2OH2OH2OH2OH2OH2OH2OH2OH2OH2OH2OH2OH2OH2OH2OH2OH2OH2OH2OH2OH2OH2OH2OH2OH2OH2OH2OH2OH2OH2OH2OH2OH2OH2OH2OH2OH2OH2OH2OH2OH2OH2OH2OH2OH2OH2OH2OH2OH2OH2OH2OH2OH2OH2OH2OH2OH2OH2OH2OH2OH2OH2OH2OH2OH2OH2OH2OH2OH2OH2OH2OH2OH2OH2OH2OH2OH2OH2OH2OH2OH2OH2OH2OH2OH2OH2OH2OH2OH2OH2OH2OH2OH2OH2OH2OH2OH2OH2OH2OH2OH2OH2OH2OH2OH2OH2OH2OH2OH2OH2OH2OH2OH2OH2OH2OH2OH2OH2OH2OH2OH2OH2OH2OH2OH2OH2OH2OH2OH2OH2OH2OH2OH2OH2OH2OH2OH2OH2OH2OH2OH2OH2OH2OH2OH2OH2OH2OH2OH2OH2OH2OH2OH2OH2OH2OH2OH2OH2OH2OH2OH2OH2OH2OH2OH2OH2OH2OH2OH2OH2OH2OH2OH2OH2OH2OH2OH2OH2OH2OH2OH2OH2OH2OH2OH2OH2OH2OH2OH2OH2OH2OH2OH2OH2OH2OH2OH2OH2OH2OH2OH2OH2OH2OH2OH2OH2OH2OH2OH2OH2OH2OH2OH2OH2OH2OH2OH2OH2OH2OH2OH2OH2OH2OH2OH2OH2OH2OH2OH2OH2OH2OH2OH2OH2OH2OH2OH2OH2OH2OH2OH2OH2OH2OH2OH2OH2OH2OH2OH2OH2OH2OH2OH2OH2OH2OH2OH2OH2OH2OH2OH2OH2OH2OH2OH2OH2OH2OH2OH2OH2OH2OH2OH2OH2OH2OH2OH2OH2OH2OH2OH2OH2OH2OH2OH2OH
_chemical_formula_sum              "I240 Pb64 C81 N81 H2268 O891"
_cell_length_a       45.64
_cell_length_b       44.94
_cell_length_c       44.24
_cell_angle_alpha    90
_cell_angle_beta     90
_cell_angle_gamma    90

_space_group_name_H-M_alt    "P 1"
_space_group_IT_number       1

loop_
  _space_group_symop_operation_xyz
  'x, y, z'

loop_
  _atom_site_type_symbol
  _atom_site_label
  _atom_site_symmetry_multiplicity
  _atom_site_fract_x
  _atom_site_fract_y
  _atom_site_fract_z
  _atom_site_occupancy
  I   I1        1.0  0.27168  0.28181  0.20026  1.0000
  I   I2        1.0  0.42283  0.29683  0.19870  1.0000
  I   I3        1.0  0.55127  0.28548  0.20392  1.0000
  I   I4        1.0  0.68226  0.29796  0.20022  1.0000
  I   I5        1.0  0.28633  0.42906  0.19555  1.0000
  I   I6        1.0  0.41228  0.42457  0.19730  1.0000
  I   I7        1.0  0.55295  0.42442  0.20097  1.0000
  I   I8        1.0  0.67918  0.42739  0.20182  1.0000
  I   I9        1.0  0.28178  0.56689  0.20114  1.0000
  I   I10       1.0  0.40936  0.56611  0.19934  1.0000
  I   I11       1.0  0.55007  0.56288  0.19907  1.0000
  I   I12       1.0  0.67581  0.56533  0.20355  1.0000
  I   I13       1.0  0.26766  0.70951  0.20396  1.0000
  I   I14       1.0  0.42815  0.70699  0.20308  1.0000
  I   I15       1.0  0.54685  0.70563  0.20105  1.0000
  I   I16       1.0  0.67662  0.69930  0.20052  1.0000
  I   I17       1.0  0.27883  0.20561  0.27566  1.0000
  I   I18       1.0  0.41065  0.21061  0.29087  1.0000
  I   I19       1.0  0.54543  0.20981  0.28628  1.0000
  I   I20       1.0  0.69372  0.21798  0.27331  1.0000
  I   I21       1.0  0.21575  0.25368  0.27947  1.0000
  I   I22       1.0  0.27795  0.28497  0.34741  1.0000
  I   I23       1.0  0.26039  0.35347  0.26752  1.0000
  I   I24       1.0  0.34713  0.27592  0.25662  1.0000
  I   I25       1.0  0.40856  0.26012  0.34430  1.0000
  I   I26       1.0  0.39954  0.35313  0.28272  1.0000
  I   I27       1.0  0.48417  0.29125  0.27960  1.0000
  I   I28       1.0  0.55648  0.28535  0.35129  1.0000
  I   I29       1.0  0.56751  0.35392  0.27560  1.0000
  I   I30       1.0  0.62270  0.27497  0.27643  1.0000
  I   I31       1.0  0.68410  0.28652  0.35104  1.0000
  I   I32       1.0  0.67777  0.35820  0.28348  1.0000
  I   I33       1.0  0.76251  0.30533  0.27374  1.0000
  I   I34       1.0  0.20006  0.42221  0.30666  1.0000
  I   I35       1.0  0.27326  0.41945  0.34206  1.0000
  I   I36       1.0  0.25971  0.49158  0.26798  1.0000
  I   I37       1.0  0.34928  0.44077  0.27341  1.0000
  I   I38       1.0  0.41386  0.42302  0.34479  1.0000
  I   I39       1.0  0.43379  0.49420  0.27259  1.0000
  I   I40       1.0  0.48706  0.40461  0.27257  1.0000
  I   I41       1.0  0.55162  0.42232  0.34808  1.0000
  I   I42       1.0  0.54047  0.49473  0.27859  1.0000
  I   I43       1.0  0.62535  0.43965  0.28067  1.0000
  I   I44       1.0  0.69463  0.42642  0.34848  1.0000
  I   I45       1.0  0.70243  0.49655  0.27656  1.0000
  I   I46       1.0  0.76963  0.42608  0.27867  1.0000
  I   I47       1.0  0.20609  0.56811  0.27716  1.0000
  I   I48       1.0  0.27715  0.56347  0.34731  1.0000
  I   I49       1.0  0.28190  0.63660  0.27648  1.0000
  I   I50       1.0  0.34759  0.54586  0.27425  1.0000
  I   I51       1.0  0.41388  0.56312  0.34651  1.0000
  I   I52       1.0  0.39558  0.63671  0.27310  1.0000
  I   I53       1.0  0.48510  0.58202  0.27199  1.0000
  I   I54       1.0  0.54957  0.56388  0.34707  1.0000
  I   I55       1.0  0.57132  0.63672  0.27038  1.0000
  I   I56       1.0  0.62318  0.55046  0.28398  1.0000
  I   I57       1.0  0.69557  0.56694  0.34930  1.0000
  I   I58       1.0  0.68414  0.63797  0.27725  1.0000
  I   I59       1.0  0.76454  0.56823  0.27224  1.0000
  I   I60       1.0  0.20458  0.70897  0.28230  1.0000
  I   I61       1.0  0.27530  0.70482  0.35196  1.0000
  I   I62       1.0  0.27203  0.78377  0.28200  1.0000
  I   I63       1.0  0.34786  0.72450  0.26161  1.0000
  I   I64       1.0  0.41332  0.70013  0.34904  1.0000
  I   I65       1.0  0.42312  0.78101  0.28990  1.0000
  I   I66       1.0  0.48510  0.69161  0.28083  1.0000
  I   I67       1.0  0.55615  0.70090  0.34934  1.0000
  I   I68       1.0  0.54240  0.78490  0.28562  1.0000
  I   I69       1.0  0.62047  0.71989  0.27596  1.0000
  I   I70       1.0  0.68822  0.69930  0.34845  1.0000
  I   I71       1.0  0.68226  0.78575  0.28700  1.0000
  I   I72       1.0  0.76230  0.70349  0.27292  1.0000
  I   I73       1.0  0.28390  0.21174  0.42858  1.0000
  I   I74       1.0  0.41460  0.20525  0.43049  1.0000
  I   I75       1.0  0.54911  0.20615  0.42964  1.0000
  I   I76       1.0  0.68662  0.21517  0.42434  1.0000
  I   I77       1.0  0.21176  0.29353  0.42283  1.0000
  I   I78       1.0  0.28262  0.28593  0.49298  1.0000
  I   I79       1.0  0.28876  0.35410  0.42258  1.0000
  I   I80       1.0  0.35011  0.27934  0.41427  1.0000
  I   I81       1.0  0.42144  0.28476  0.49203  1.0000
  I   I82       1.0  0.41150  0.35088  0.42180  1.0000
  I   I83       1.0  0.48697  0.28600  0.41193  1.0000
  I   I84       1.0  0.54356  0.28041  0.49623  1.0000
  I   I85       1.0  0.56296  0.35123  0.42603  1.0000
  I   I86       1.0  0.62633  0.27996  0.43119  1.0000
  I   I87       1.0  0.70136  0.28671  0.49709  1.0000
  I   I88       1.0  0.69970  0.35097  0.42290  1.0000
  I   I89       1.0  0.79558  0.31258  0.42718  1.0000
  I   I90       1.0  0.20557  0.41381  0.41514  1.0000
  I   I91       1.0  0.28044  0.42274  0.49213  1.0000
  I   I92       1.0  0.26586  0.49485  0.42288  1.0000
  I   I93       1.0  0.34764  0.43355  0.41366  1.0000
  I   I94       1.0  0.41781  0.42275  0.49136  1.0000
  I   I95       1.0  0.42894  0.49384  0.42094  1.0000
  I   I96       1.0  0.48868  0.41298  0.41778  1.0000
  I   I97       1.0  0.55700  0.42241  0.49317  1.0000
  I   I98       1.0  0.55189  0.49393  0.42528  1.0000
  I   I99       1.0  0.63105  0.42601  0.41767  1.0000
  I   I100      1.0  0.69904  0.42444  0.49303  1.0000
  I   I101      1.0  0.70459  0.49387  0.42018  1.0000
  I   I102      1.0  0.77915  0.42090  0.41767  1.0000
  I   I103      1.0  0.20634  0.57621  0.41610  1.0000
  I   I104      1.0  0.27846  0.56260  0.49304  1.0000
  I   I105      1.0  0.28439  0.63785  0.42524  1.0000
  I   I106      1.0  0.34870  0.55566  0.41826  1.0000
  I   I107      1.0  0.41679  0.56186  0.49244  1.0000
  I   I108      1.0  0.41101  0.63686  0.42580  1.0000
  I   I109      1.0  0.48920  0.57634  0.41979  1.0000
  I   I110      1.0  0.55788  0.56417  0.49265  1.0000
  I   I111      1.0  0.56835  0.63739  0.42081  1.0000
  I   I112      1.0  0.63017  0.55770  0.41651  1.0000
  I   I113      1.0  0.69551  0.55964  0.49266  1.0000
  I   I114      1.0  0.69123  0.63654  0.42940  1.0000
  I   I115      1.0  0.77972  0.56136  0.41664  1.0000
  I   I116      1.0  0.20708  0.70417  0.42562  1.0000
  I   I117      1.0  0.28953  0.69985  0.49490  1.0000
  I   I118      1.0  0.27663  0.79106  0.43130  1.0000
  I   I119      1.0  0.34828  0.71425  0.41852  1.0000
  I   I120      1.0  0.41503  0.70095  0.49510  1.0000
  I   I121      1.0  0.41098  0.78610  0.42547  1.0000
  I   I122      1.0  0.48989  0.70570  0.42283  1.0000
  I   I123      1.0  0.55694  0.69928  0.49441  1.0000
  I   I124      1.0  0.55277  0.78463  0.42716  1.0000
  I   I125      1.0  0.63357  0.72380  0.42332  1.0000
  I   I126      1.0  0.70986  0.71357  0.49150  1.0000
  I   I127      1.0  0.67728  0.81668  0.46052  1.0000
  I   I128      1.0  0.78237  0.68013  0.42471  1.0000
  I   I129      1.0  0.29731  0.20712  0.55827  1.0000
  I   I130      1.0  0.41438  0.20717  0.57133  1.0000
  I   I131      1.0  0.56654  0.20777  0.56727  1.0000
  I   I132      1.0  0.67881  0.21116  0.57213  1.0000
  I   I133      1.0  0.21542  0.29303  0.56246  1.0000
  I   I134      1.0  0.28489  0.27836  0.63810  1.0000
  I   I135      1.0  0.27820  0.35182  0.57274  1.0000
  I   I136      1.0  0.35548  0.29272  0.55977  1.0000
  I   I137      1.0  0.41492  0.28415  0.63874  1.0000
  I   I138      1.0  0.43510  0.35157  0.56441  1.0000
  I   I139      1.0  0.49390  0.26917  0.57686  1.0000
  I   I140      1.0  0.57359  0.28753  0.63722  1.0000
  I   I141      1.0  0.55357  0.35227  0.56940  1.0000
  I   I142      1.0  0.63022  0.28944  0.54971  1.0000
  I   I143      1.0  0.69003  0.28994  0.63678  1.0000
  I   I144      1.0  0.70539  0.35271  0.56861  1.0000
  I   I145      1.0  0.78683  0.29547  0.55857  1.0000
  I   I146      1.0  0.21723  0.42956  0.57021  1.0000
  I   I147      1.0  0.28738  0.42248  0.63986  1.0000
  I   I148      1.0  0.29243  0.49355  0.56776  1.0000
  I   I149      1.0  0.35631  0.41202  0.56171  1.0000
  I   I150      1.0  0.42272  0.42275  0.63801  1.0000
  I   I151      1.0  0.41261  0.49357  0.56949  1.0000
  I   I152      1.0  0.49494  0.43609  0.56357  1.0000
  I   I153      1.0  0.56151  0.42447  0.63852  1.0000
  I   I154      1.0  0.57627  0.49349  0.56334  1.0000
  I   I155      1.0  0.63515  0.41613  0.56242  1.0000
  I   I156      1.0  0.70408  0.42730  0.63896  1.0000
  I   I157      1.0  0.70430  0.49428  0.56577  1.0000
  I   I158      1.0  0.78419  0.42371  0.56382  1.0000
  I   I159      1.0  0.20701  0.55426  0.56133  1.0000
  I   I160      1.0  0.27744  0.56175  0.63894  1.0000
  I   I161      1.0  0.27389  0.63620  0.57365  1.0000
  I   I162      1.0  0.35108  0.57399  0.56280  1.0000
  I   I163      1.0  0.42351  0.56400  0.63850  1.0000
  I   I164      1.0  0.42700  0.63700  0.56677  1.0000
  I   I165      1.0  0.49354  0.55450  0.56169  1.0000
  I   I166      1.0  0.56093  0.56139  0.63872  1.0000
  I   I167      1.0  0.55618  0.63530  0.56992  1.0000
  I   I168      1.0  0.63610  0.57294  0.56375  1.0000
  I   I169      1.0  0.70161  0.55945  0.63830  1.0000
  I   I170      1.0  0.71104  0.63808  0.55702  1.0000
  I   I171      1.0  0.78237  0.56010  0.55978  1.0000
  I   I172      1.0  0.21000  0.70758  0.54837  1.0000
  I   I173      1.0  0.26234  0.71294  0.63587  1.0000
  I   I174      1.0  0.28108  0.78260  0.55789  1.0000
  I   I175      1.0  0.34948  0.70779  0.57737  1.0000
  I   I176      1.0  0.42461  0.70032  0.63963  1.0000
  I   I177      1.0  0.40417  0.79375  0.56838  1.0000
  I   I178      1.0  0.49096  0.71416  0.56602  1.0000
  I   I179      1.0  0.56686  0.69820  0.63994  1.0000
  I   I180      1.0  0.55451  0.78234  0.56810  1.0000
  I   I181      1.0  0.63456  0.70432  0.55924  1.0000
  I   I182      1.0  0.69562  0.69467  0.63439  1.0000
  I   I183      1.0  0.66891  0.81117  0.57081  1.0000
  I   I184      1.0  0.79026  0.69006  0.57159  1.0000
  I   I185      1.0  0.28894  0.21640  0.72261  1.0000
  I   I186      1.0  0.42473  0.21976  0.71649  1.0000
  I   I187      1.0  0.56752  0.21434  0.70073  1.0000
  I   I188      1.0  0.68667  0.21378  0.71329  1.0000
  I   I189      1.0  0.21695  0.29195  0.70288  1.0000
  I   I190      1.0  0.28443  0.29256  0.78864  1.0000
  I   I191      1.0  0.27943  0.36017  0.71990  1.0000
  I   I192      1.0  0.35611  0.29668  0.70850  1.0000
  I   I193      1.0  0.44346  0.29683  0.78595  1.0000
  I   I194      1.0  0.42645  0.35977  0.71286  1.0000
  I   I195      1.0  0.49520  0.29030  0.69560  1.0000
  I   I196      1.0  0.55430  0.28238  0.78636  1.0000
  I   I197      1.0  0.56378  0.35593  0.71198  1.0000
  I   I198      1.0  0.63288  0.29401  0.70707  1.0000
  I   I199      1.0  0.68230  0.29397  0.78321  1.0000
  I   I200      1.0  0.71197  0.35381  0.70563  1.0000
  I   I201      1.0  0.77671  0.27568  0.67890  1.0000
  I   I202      1.0  0.21487  0.43032  0.70113  1.0000
  I   I203      1.0  0.28950  0.43390  0.78738  1.0000
  I   I204      1.0  0.27052  0.49987  0.71830  1.0000
  I   I205      1.0  0.35838  0.43078  0.70959  1.0000
  I   I206      1.0  0.43240  0.42921  0.79098  1.0000
  I   I207      1.0  0.43099  0.49655  0.71039  1.0000
  I   I208      1.0  0.49936  0.42953  0.70770  1.0000
  I   I209      1.0  0.57102  0.42658  0.78994  1.0000
  I   I210      1.0  0.57698  0.49484  0.70785  1.0000
  I   I211      1.0  0.64016  0.42109  0.70613  1.0000
  I   I212      1.0  0.69951  0.42460  0.78886  1.0000
  I   I213      1.0  0.71473  0.49495  0.71998  1.0000
  I   I214      1.0  0.78562  0.42218  0.70706  1.0000
  I   I215      1.0  0.21842  0.57949  0.71388  1.0000
  I   I216      1.0  0.29539  0.56638  0.78542  1.0000
  I   I217      1.0  0.30091  0.63671  0.70174  1.0000
  I   I218      1.0  0.35790  0.55645  0.70504  1.0000
  I   I219      1.0  0.42758  0.56191  0.79068  1.0000
  I   I220      1.0  0.42264  0.63577  0.71637  1.0000
  I   I221      1.0  0.49833  0.56500  0.70957  1.0000
  I   I222      1.0  0.57257  0.56021  0.79018  1.0000
  I   I223      1.0  0.56203  0.63446  0.71481  1.0000
  I   I224      1.0  0.64098  0.57246  0.71137  1.0000
  I   I225      1.0  0.71240  0.57356  0.78630  1.0000
  I   I226      1.0  0.72280  0.63576  0.70329  1.0000
  I   I227      1.0  0.78566  0.56175  0.70569  1.0000
  I   I228      1.0  0.21739  0.69583  0.70306  1.0000
  I   I229      1.0  0.29023  0.69493  0.78250  1.0000
  I   I230      1.0  0.28456  0.77919  0.71547  1.0000
  I   I231      1.0  0.35820  0.71025  0.70309  1.0000
  I   I232      1.0  0.44179  0.70559  0.78747  1.0000
  I   I233      1.0  0.43292  0.77892  0.70346  1.0000
  I   I234      1.0  0.49783  0.70277  0.69914  1.0000
  I   I235      1.0  0.55339  0.69844  0.78829  1.0000
  I   I236      1.0  0.56180  0.78389  0.70445  1.0000
  I   I237      1.0  0.63782  0.69000  0.70171  1.0000
  I   I238      1.0  0.67700  0.70018  0.77271  1.0000
  I   I239      1.0  0.67102  0.80411  0.69404  1.0000
  I   I240      1.0  0.78273  0.72190  0.67266  1.0000
  Pb  Pb1       1.0  0.27788  0.28595  0.27055  1.0000
  Pb  Pb2       1.0  0.41512  0.28762  0.26778  1.0000
  Pb  Pb3       1.0  0.55401  0.27852  0.27549  1.0000
  Pb  Pb4       1.0  0.69352  0.28842  0.26910  1.0000
  Pb  Pb5       1.0  0.28439  0.42816  0.26564  1.0000
  Pb  Pb6       1.0  0.42307  0.42598  0.27141  1.0000
  Pb  Pb7       1.0  0.55910  0.42385  0.27345  1.0000
  Pb  Pb8       1.0  0.69933  0.42608  0.27611  1.0000
  Pb  Pb9       1.0  0.27660  0.56819  0.27208  1.0000
  Pb  Pb10      1.0  0.41384  0.56897  0.27090  1.0000
  Pb  Pb11      1.0  0.55477  0.56636  0.27284  1.0000
  Pb  Pb12      1.0  0.69216  0.56679  0.27461  1.0000
  Pb  Pb13      1.0  0.27192  0.71474  0.27522  1.0000
  Pb  Pb14      1.0  0.41544  0.71211  0.27327  1.0000
  Pb  Pb15      1.0  0.55081  0.71174  0.27258  1.0000
  Pb  Pb16      1.0  0.69001  0.71081  0.27167  1.0000
  Pb  Pb17      1.0  0.27997  0.27978  0.42131  1.0000
  Pb  Pb18      1.0  0.42030  0.27509  0.42182  1.0000
  Pb  Pb19      1.0  0.55969  0.27638  0.42641  1.0000
  Pb  Pb20      1.0  0.72214  0.27331  0.40772  1.0000
  Pb  Pb21      1.0  0.27747  0.42277  0.41968  1.0000
  Pb  Pb22      1.0  0.42122  0.42093  0.41991  1.0000
  Pb  Pb23      1.0  0.56400  0.42168  0.42138  1.0000
  Pb  Pb24      1.0  0.71181  0.41868  0.42172  1.0000
  Pb  Pb25      1.0  0.27733  0.56708  0.42020  1.0000
  Pb  Pb26      1.0  0.42155  0.56413  0.41995  1.0000
  Pb  Pb27      1.0  0.56344  0.56444  0.42058  1.0000
  Pb  Pb28      1.0  0.71224  0.56234  0.42057  1.0000
  Pb  Pb29      1.0  0.27585  0.71610  0.42292  1.0000
  Pb  Pb30      1.0  0.41969  0.70790  0.42205  1.0000
  Pb  Pb31      1.0  0.56567  0.70970  0.42164  1.0000
  Pb  Pb32      1.0  0.71712  0.69960  0.42119  1.0000
  Pb  Pb33      1.0  0.28871  0.27516  0.56655  1.0000
  Pb  Pb34      1.0  0.42597  0.27601  0.57015  1.0000
  Pb  Pb35      1.0  0.56638  0.27761  0.56704  1.0000
  Pb  Pb36      1.0  0.71871  0.27234  0.57370  1.0000
  Pb  Pb37      1.0  0.28524  0.42273  0.56902  1.0000
  Pb  Pb38      1.0  0.42759  0.42073  0.56774  1.0000
  Pb  Pb39      1.0  0.56789  0.42115  0.56775  1.0000
  Pb  Pb40      1.0  0.71621  0.42067  0.56756  1.0000
  Pb  Pb41      1.0  0.28195  0.56542  0.56769  1.0000
  Pb  Pb42      1.0  0.42605  0.56209  0.56768  1.0000
  Pb  Pb43      1.0  0.56922  0.56255  0.56792  1.0000
  Pb  Pb44      1.0  0.71410  0.56344  0.56604  1.0000
  Pb  Pb45      1.0  0.28002  0.71291  0.56472  1.0000
  Pb  Pb46      1.0  0.42299  0.70601  0.56899  1.0000
  Pb  Pb47      1.0  0.56746  0.70468  0.56803  1.0000
  Pb  Pb48      1.0  0.72449  0.70743  0.57274  1.0000
  Pb  Pb49      1.0  0.28522  0.28724  0.71759  1.0000
  Pb  Pb50      1.0  0.42995  0.28911  0.71789  1.0000
  Pb  Pb51      1.0  0.56448  0.28330  0.71481  1.0000
  Pb  Pb52      1.0  0.71812  0.27708  0.71694  1.0000
  Pb  Pb53      1.0  0.28859  0.42978  0.71651  1.0000
  Pb  Pb54      1.0  0.43131  0.42799  0.72198  1.0000
  Pb  Pb55      1.0  0.57112  0.42429  0.72030  1.0000
  Pb  Pb56      1.0  0.71194  0.42147  0.71687  1.0000
  Pb  Pb57      1.0  0.28880  0.57001  0.71582  1.0000
  Pb  Pb58      1.0  0.42979  0.56605  0.72076  1.0000
  Pb  Pb59      1.0  0.57289  0.56278  0.72030  1.0000
  Pb  Pb60      1.0  0.71658  0.56526  0.71526  1.0000
  Pb  Pb61      1.0  0.28883  0.71004  0.71430  1.0000
  Pb  Pb62      1.0  0.43020  0.70919  0.71806  1.0000
  Pb  Pb63      1.0  0.56621  0.70279  0.71866  1.0000
  Pb  Pb64      1.0  0.72685  0.70696  0.71018  1.0000
  C   C1        1.0  0.34036  0.35270  0.20009  1.0000
  C   C2        1.0  0.48464  0.35778  0.19439  1.0000
  C   C3        1.0  0.61083  0.35582  0.19938  1.0000
  C   C4        1.0  0.34771  0.49594  0.19476  1.0000
  C   C5        1.0  0.47865  0.48933  0.19737  1.0000
  C   C6        1.0  0.61178  0.49341  0.20498  1.0000
  C   C7        1.0  0.34081  0.63962  0.19718  1.0000
  C   C8        1.0  0.48365  0.62988  0.19736  1.0000
  C   C9        1.0  0.61070  0.63235  0.19114  1.0000
  C   C10       1.0  0.33397  0.20862  0.34150  1.0000
  C   C11       1.0  0.48455  0.21459  0.35496  1.0000
  C   C12       1.0  0.61765  0.21219  0.34554  1.0000
  C   C13       1.0  0.20677  0.34543  0.34589  1.0000
  C   C14       1.0  0.33757  0.35545  0.34760  1.0000
  C   C15       1.0  0.48251  0.35231  0.34541  1.0000
  C   C16       1.0  0.61636  0.35558  0.34746  1.0000
  C   C17       1.0  0.75840  0.36273  0.34513  1.0000
  C   C18       1.0  0.20909  0.49414  0.34732  1.0000
  C   C19       1.0  0.34453  0.49327  0.34692  1.0000
  C   C20       1.0  0.48155  0.49060  0.34549  1.0000
  C   C21       1.0  0.61743  0.49105  0.35029  1.0000
  C   C22       1.0  0.75744  0.49870  0.34586  1.0000
  C   C23       1.0  0.20951  0.63211  0.34512  1.0000
  C   C24       1.0  0.34176  0.63197  0.34805  1.0000
  C   C25       1.0  0.48158  0.63241  0.34520  1.0000
  C   C26       1.0  0.61759  0.62939  0.34490  1.0000
  C   C27       1.0  0.75966  0.63788  0.34219  1.0000
  C   C28       1.0  0.34398  0.77108  0.34774  1.0000
  C   C29       1.0  0.48191  0.76577  0.35520  1.0000
  C   C30       1.0  0.61063  0.77312  0.34745  1.0000
  C   C31       1.0  0.34683  0.21792  0.49001  1.0000
  C   C32       1.0  0.48165  0.21229  0.49299  1.0000
  C   C33       1.0  0.62443  0.21202  0.49202  1.0000
  C   C34       1.0  0.21359  0.35605  0.49040  1.0000
  C   C35       1.0  0.34846  0.35287  0.48763  1.0000
  C   C36       1.0  0.48447  0.35331  0.48764  1.0000
  C   C37       1.0  0.62650  0.35583  0.48758  1.0000
  C   C38       1.0  0.75946  0.36255  0.49358  1.0000
  C   C39       1.0  0.21260  0.48880  0.49258  1.0000
  C   C40       1.0  0.34714  0.49072  0.48793  1.0000
  C   C41       1.0  0.48725  0.49162  0.48768  1.0000
  C   C42       1.0  0.62443  0.49161  0.48697  1.0000
  C   C43       1.0  0.76547  0.48868  0.48453  1.0000
  C   C44       1.0  0.21313  0.62974  0.49255  1.0000
  C   C45       1.0  0.34644  0.63026  0.48706  1.0000
  C   C46       1.0  0.48611  0.63422  0.48901  1.0000
  C   C47       1.0  0.62190  0.62999  0.48765  1.0000
  C   C48       1.0  0.76005  0.61488  0.48758  1.0000
  C   C49       1.0  0.34548  0.76969  0.49510  1.0000
  C   C50       1.0  0.48460  0.77055  0.49502  1.0000
  C   C51       1.0  0.61428  0.76538  0.49765  1.0000
  C   C52       1.0  0.34594  0.21282  0.63998  1.0000
  C   C53       1.0  0.47984  0.21980  0.64510  1.0000
  C   C54       1.0  0.62002  0.21190  0.63515  1.0000
  C   C55       1.0  0.21336  0.35306  0.63545  1.0000
  C   C56       1.0  0.35033  0.35469  0.63101  1.0000
  C   C57       1.0  0.48955  0.35538  0.63034  1.0000
  C   C58       1.0  0.62675  0.35858  0.63013  1.0000
  C   C59       1.0  0.76643  0.35593  0.62668  1.0000
  C   C60       1.0  0.21276  0.49422  0.63519  1.0000
  C   C61       1.0  0.35189  0.49226  0.63282  1.0000
  C   C62       1.0  0.48967  0.49344  0.63276  1.0000
  C   C63       1.0  0.63029  0.49221  0.63235  1.0000
  C   C64       1.0  0.76633  0.49136  0.62932  1.0000
  C   C65       1.0  0.21109  0.62957  0.63489  1.0000
  C   C66       1.0  0.35295  0.63239  0.63024  1.0000
  C   C67       1.0  0.48935  0.63062  0.63076  1.0000
  C   C68       1.0  0.62743  0.62766  0.63071  1.0000
  C   C69       1.0  0.76476  0.62236  0.62735  1.0000
  C   C70       1.0  0.35093  0.77572  0.64296  1.0000
  C   C71       1.0  0.48774  0.77077  0.63766  1.0000
  C   C72       1.0  0.62096  0.76314  0.63275  1.0000
  C   C73       1.0  0.35827  0.35316  0.78257  1.0000
  C   C74       1.0  0.49998  0.36341  0.77301  1.0000
  C   C75       1.0  0.62275  0.35570  0.77524  1.0000
  C   C76       1.0  0.35354  0.49481  0.77308  1.0000
  C   C77       1.0  0.50056  0.49413  0.77370  1.0000
  C   C78       1.0  0.63651  0.49336  0.76962  1.0000
  C   C79       1.0  0.35686  0.63493  0.77731  1.0000
  C   C80       1.0  0.49361  0.62854  0.77343  1.0000
  C   C81       1.0  0.62716  0.62943  0.77819  1.0000
  N   N1        1.0  0.37319  0.35599  0.20928  1.0000
  N   N2        1.0  0.51398  0.35564  0.21258  1.0000
  N   N3        1.0  0.64105  0.36064  0.21504  1.0000
  N   N4        1.0  0.37728  0.49397  0.21256  1.0000
  N   N5        1.0  0.51145  0.49137  0.20744  1.0000
  N   N6        1.0  0.64143  0.49387  0.22251  1.0000
  N   N7        1.0  0.37516  0.63932  0.19704  1.0000
  N   N8        1.0  0.51363  0.63201  0.21465  1.0000
  N   N9        1.0  0.63630  0.63226  0.21473  1.0000
  N   N10       1.0  0.35388  0.20217  0.36998  1.0000
  N   N11       1.0  0.51834  0.21742  0.35972  1.0000
  N   N12       1.0  0.65072  0.21465  0.35476  1.0000
  N   N13       1.0  0.23800  0.35039  0.35977  1.0000
  N   N14       1.0  0.37047  0.35566  0.35747  1.0000
  N   N15       1.0  0.51382  0.35313  0.35999  1.0000
  N   N16       1.0  0.64818  0.35831  0.36049  1.0000
  N   N17       1.0  0.78457  0.34268  0.35466  1.0000
  N   N18       1.0  0.24302  0.49153  0.34999  1.0000
  N   N19       1.0  0.37720  0.49161  0.35758  1.0000
  N   N20       1.0  0.51380  0.49145  0.35743  1.0000
  N   N21       1.0  0.65046  0.49157  0.36010  1.0000
  N   N22       1.0  0.78231  0.48911  0.36800  1.0000
  N   N23       1.0  0.24077  0.63237  0.35959  1.0000
  N   N24       1.0  0.37487  0.63212  0.35727  1.0000
  N   N25       1.0  0.51371  0.63236  0.35774  1.0000
  N   N26       1.0  0.64852  0.62965  0.36011  1.0000
  N   N27       1.0  0.78915  0.62957  0.35761  1.0000
  N   N28       1.0  0.37740  0.76787  0.35480  1.0000
  N   N29       1.0  0.51610  0.76543  0.35750  1.0000
  N   N30       1.0  0.64332  0.76285  0.34994  1.0000
  N   N31       1.0  0.37971  0.21967  0.49985  1.0000
  N   N32       1.0  0.51139  0.20009  0.50500  1.0000
  N   N33       1.0  0.65728  0.22006  0.49774  1.0000
  N   N34       1.0  0.24556  0.35323  0.50230  1.0000
  N   N35       1.0  0.37962  0.35303  0.50256  1.0000
  N   N36       1.0  0.51585  0.35334  0.50197  1.0000
  N   N37       1.0  0.65762  0.35551  0.50252  1.0000
  N   N38       1.0  0.78901  0.34572  0.49739  1.0000
  N   N39       1.0  0.24531  0.49127  0.50273  1.0000
  N   N40       1.0  0.37945  0.49145  0.49973  1.0000
  N   N41       1.0  0.51846  0.49157  0.50262  1.0000
  N   N42       1.0  0.65523  0.49126  0.50254  1.0000
  N   N43       1.0  0.78204  0.48879  0.51517  1.0000
  N   N44       1.0  0.24573  0.63220  0.50241  1.0000
  N   N45       1.0  0.37727  0.62956  0.50259  1.0000
  N   N46       1.0  0.51794  0.63205  0.50211  1.0000
  N   N47       1.0  0.65290  0.62719  0.50266  1.0000
  N   N48       1.0  0.77998  0.63714  0.50500  1.0000
  N   N49       1.0  0.37960  0.76786  0.49758  1.0000
  N   N50       1.0  0.51842  0.76539  0.49735  1.0000
  N   N51       1.0  0.64791  0.76070  0.50249  1.0000
  N   N52       1.0  0.37955  0.21441  0.64729  1.0000
  N   N53       1.0  0.51134  0.20733  0.64022  1.0000
  N   N54       1.0  0.65078  0.22492  0.64244  1.0000
  N   N55       1.0  0.24561  0.35070  0.64747  1.0000
  N   N56       1.0  0.38181  0.35547  0.64512  1.0000
  N   N57       1.0  0.52081  0.35564  0.64507  1.0000
  N   N58       1.0  0.65767  0.36053  0.64521  1.0000
  N   N59       1.0  0.79357  0.35268  0.64781  1.0000
  N   N60       1.0  0.24550  0.49132  0.64488  1.0000
  N   N61       1.0  0.38395  0.49167  0.64546  1.0000
  N   N62       1.0  0.52074  0.49152  0.64781  1.0000
  N   N63       1.0  0.65993  0.49140  0.65027  1.0000
  N   N64       1.0  0.79387  0.48914  0.65014  1.0000
  N   N65       1.0  0.24286  0.63237  0.64790  1.0000
  N   N66       1.0  0.38413  0.63218  0.64510  1.0000
  N   N67       1.0  0.52076  0.62975  0.64514  1.0000
  N   N68       1.0  0.65744  0.62478  0.64768  1.0000
  N   N69       1.0  0.78889  0.63203  0.65022  1.0000
  N   N70       1.0  0.38419  0.76789  0.63987  1.0000
  N   N71       1.0  0.52107  0.76284  0.63753  1.0000
  N   N72       1.0  0.65511  0.76297  0.63238  1.0000
  N   N73       1.0  0.38868  0.35816  0.79763  1.0000
  N   N74       1.0  0.51820  0.36055  0.80264  1.0000
  N   N75       1.0  0.64812  0.36299  0.79743  1.0000
  N   N76       1.0  0.38206  0.49386  0.79208  1.0000
  N   N77       1.0  0.52566  0.49354  0.79731  1.0000
  N   N78       1.0  0.65749  0.49397  0.79729  1.0000
  N   N79       1.0  0.38644  0.63201  0.79453  1.0000
  N   N80       1.0  0.52061  0.62463  0.79453  1.0000
  N   N81       1.0  0.65725  0.62963  0.79535  1.0000
  H   H1        1.0  0.33965  0.35208  0.17609  1.0000
  H   H2        1.0  0.32876  0.37138  0.20868  1.0000
  H   H3        1.0  0.33240  0.33242  0.20940  1.0000
  H   H4        1.0  0.38220  0.37582  0.20086  1.0000
  H   H5        1.0  0.38563  0.33806  0.20111  1.0000
  H   H6        1.0  0.37583  0.35630  0.23284  1.0000
  H   H7        1.0  0.48997  0.35953  0.17107  1.0000
  H   H8        1.0  0.47336  0.37720  0.20164  1.0000
  H   H9        1.0  0.47216  0.33835  0.19883  1.0000
  H   H10       1.0  0.52745  0.37376  0.20681  1.0000
  H   H11       1.0  0.52494  0.33550  0.20835  1.0000
  H   H12       1.0  0.50987  0.35701  0.23566  1.0000
  H   H13       1.0  0.61455  0.35650  0.17569  1.0000
  H   H14       1.0  0.59667  0.37336  0.20616  1.0000
  H   H15       1.0  0.60252  0.33481  0.20630  1.0000
  H   H16       1.0  0.65027  0.38134  0.20903  1.0000
  H   H17       1.0  0.65554  0.34352  0.20874  1.0000
  H   H18       1.0  0.63926  0.36002  0.23851  1.0000
  H   H19       1.0  0.35297  0.49848  0.17141  1.0000
  H   H20       1.0  0.33609  0.51466  0.20330  1.0000
  H   H21       1.0  0.33602  0.47583  0.19861  1.0000
  H   H22       1.0  0.38971  0.51320  0.20850  1.0000
  H   H23       1.0  0.38915  0.47501  0.20605  1.0000
  H   H24       1.0  0.37320  0.49263  0.23563  1.0000
  H   H25       1.0  0.47859  0.48664  0.17341  1.0000
  H   H26       1.0  0.46815  0.50937  0.20403  1.0000
  H   H27       1.0  0.46919  0.47060  0.20829  1.0000
  H   H28       1.0  0.52150  0.51028  0.19851  1.0000
  H   H29       1.0  0.52290  0.47229  0.20067  1.0000
  H   H30       1.0  0.51349  0.49275  0.23108  1.0000
  H   H31       1.0  0.61710  0.49337  0.18152  1.0000
  H   H32       1.0  0.59970  0.51267  0.21120  1.0000
  H   H33       1.0  0.60055  0.47361  0.21120  1.0000
  H   H34       1.0  0.65301  0.51346  0.21773  1.0000
  H   H35       1.0  0.65415  0.47531  0.21621  1.0000
  H   H36       1.0  0.63780  0.49266  0.24569  1.0000
  H   H37       1.0  0.33354  0.63687  0.17444  1.0000
  H   H38       1.0  0.33390  0.66034  0.20638  1.0000
  H   H39       1.0  0.33377  0.62162  0.21103  1.0000
  H   H40       1.0  0.38359  0.65617  0.18347  1.0000
  H   H41       1.0  0.38285  0.61882  0.18907  1.0000
  H   H42       1.0  0.38300  0.64181  0.21931  1.0000
  H   H43       1.0  0.48835  0.62615  0.17400  1.0000
  H   H44       1.0  0.47209  0.65012  0.20102  1.0000
  H   H45       1.0  0.47203  0.61144  0.20647  1.0000
  H   H46       1.0  0.52465  0.65172  0.20923  1.0000
  H   H47       1.0  0.52661  0.61352  0.20890  1.0000
  H   H48       1.0  0.51004  0.63134  0.23784  1.0000
  H   H49       1.0  0.62009  0.63057  0.16921  1.0000
  H   H50       1.0  0.59895  0.65264  0.19361  1.0000
  H   H51       1.0  0.59709  0.61373  0.19591  1.0000
  H   H52       1.0  0.64975  0.65097  0.21145  1.0000
  H   H53       1.0  0.64898  0.61283  0.21218  1.0000
  H   H54       1.0  0.62788  0.63311  0.23654  1.0000
  H   H55       1.0  0.34701  0.20632  0.32175  1.0000
  H   H56       1.0  0.32599  0.23078  0.34367  1.0000
  H   H57       1.0  0.31644  0.19299  0.34152  1.0000
  H   H58       1.0  0.37172  0.21666  0.37035  1.0000
  H   H59       1.0  0.36152  0.18016  0.37025  1.0000
  H   H60       1.0  0.34142  0.20579  0.38931  1.0000
  H   H61       1.0  0.48014  0.21876  0.33174  1.0000
  H   H62       1.0  0.47413  0.23076  0.36882  1.0000
  H   H63       1.0  0.47820  0.19274  0.36132  1.0000
  H   H64       1.0  0.52513  0.23955  0.35664  1.0000
  H   H65       1.0  0.52941  0.20499  0.34342  1.0000
  H   H66       1.0  0.52485  0.21090  0.38163  1.0000
  H   H67       1.0  0.61636  0.21352  0.32151  1.0000
  H   H68       1.0  0.60645  0.23039  0.35574  1.0000
  H   H69       1.0  0.60959  0.19140  0.35348  1.0000
  H   H70       1.0  0.65887  0.23581  0.34922  1.0000
  H   H71       1.0  0.66338  0.19890  0.34362  1.0000
  H   H72       1.0  0.65423  0.21176  0.37807  1.0000
  H   H73       1.0  0.20888  0.34592  0.32198  1.0000
  H   H74       1.0  0.19290  0.36273  0.35375  1.0000
  H   H75       1.0  0.19892  0.32450  0.35362  1.0000
  H   H76       1.0  0.24760  0.36994  0.35155  1.0000
  H   H77       1.0  0.25156  0.33214  0.35434  1.0000
  H   H78       1.0  0.23691  0.35187  0.38318  1.0000
  H   H79       1.0  0.33694  0.35758  0.32368  1.0000
  H   H80       1.0  0.32715  0.37375  0.35838  1.0000
  H   H81       1.0  0.32822  0.33488  0.35460  1.0000
  H   H82       1.0  0.38027  0.37623  0.35249  1.0000
  H   H83       1.0  0.38206  0.33947  0.34585  1.0000
  H   H84       1.0  0.37327  0.35191  0.38073  1.0000
  H   H85       1.0  0.48511  0.35164  0.32155  1.0000
  H   H86       1.0  0.47123  0.37193  0.35211  1.0000
  H   H87       1.0  0.47179  0.33286  0.35349  1.0000
  H   H88       1.0  0.52516  0.37229  0.35314  1.0000
  H   H89       1.0  0.52605  0.33426  0.35402  1.0000
  H   H90       1.0  0.51240  0.35380  0.38342  1.0000
  H   H91       1.0  0.61818  0.35149  0.32388  1.0000
  H   H92       1.0  0.60538  0.37606  0.35152  1.0000
  H   H93       1.0  0.60585  0.33753  0.35863  1.0000
  H   H94       1.0  0.65924  0.37634  0.35092  1.0000
  H   H95       1.0  0.66013  0.33890  0.35619  1.0000
  H   H96       1.0  0.64780  0.36157  0.38374  1.0000
  H   H97       1.0  0.76298  0.37199  0.32360  1.0000
  H   H98       1.0  0.75606  0.37977  0.36153  1.0000
  H   H99       1.0  0.73915  0.34951  0.34404  1.0000
  H   H100      1.0  0.80653  0.35451  0.35418  1.0000
  H   H101      1.0  0.78574  0.32464  0.34038  1.0000
  H   H102      1.0  0.78189  0.33493  0.37667  1.0000
  H   H103      1.0  0.20342  0.49307  0.32405  1.0000
  H   H104      1.0  0.20299  0.51494  0.35673  1.0000
  H   H105      1.0  0.19966  0.47617  0.35949  1.0000
  H   H106      1.0  0.25321  0.50922  0.33893  1.0000
  H   H107      1.0  0.25065  0.47133  0.34132  1.0000
  H   H108      1.0  0.24930  0.49258  0.37304  1.0000
  H   H109      1.0  0.34451  0.49521  0.32299  1.0000
  H   H110      1.0  0.33484  0.51234  0.35704  1.0000
  H   H111      1.0  0.33409  0.47329  0.35394  1.0000
  H   H112      1.0  0.38855  0.51082  0.35099  1.0000
  H   H113      1.0  0.38771  0.47271  0.34883  1.0000
  H   H114      1.0  0.37831  0.49019  0.38101  1.0000
  H   H115      1.0  0.48244  0.49041  0.32148  1.0000
  H   H116      1.0  0.47065  0.50994  0.35352  1.0000
  H   H117      1.0  0.47150  0.47090  0.35384  1.0000
  H   H118      1.0  0.52467  0.51007  0.34882  1.0000
  H   H119      1.0  0.52512  0.47223  0.35088  1.0000
  H   H120      1.0  0.51489  0.49263  0.38097  1.0000
  H   H121      1.0  0.61673  0.49061  0.32629  1.0000
  H   H122      1.0  0.60737  0.51058  0.35895  1.0000
  H   H123      1.0  0.60784  0.47146  0.35942  1.0000
  H   H124      1.0  0.66106  0.51007  0.35108  1.0000
  H   H125      1.0  0.66148  0.47224  0.35315  1.0000
  H   H126      1.0  0.65236  0.49278  0.38351  1.0000
  H   H127      1.0  0.76725  0.50744  0.32603  1.0000
  H   H128      1.0  0.74414  0.51504  0.35640  1.0000
  H   H129      1.0  0.74475  0.47959  0.34065  1.0000
  H   H130      1.0  0.79226  0.50755  0.37740  1.0000
  H   H131      1.0  0.79876  0.47532  0.35529  1.0000
  H   H132      1.0  0.77401  0.47623  0.38541  1.0000
  H   H133      1.0  0.21211  0.63368  0.32128  1.0000
  H   H134      1.0  0.19789  0.65074  0.35372  1.0000
  H   H135      1.0  0.19928  0.61175  0.35132  1.0000
  H   H136      1.0  0.25174  0.65224  0.35410  1.0000
  H   H137      1.0  0.25300  0.61409  0.35180  1.0000
  H   H138      1.0  0.23979  0.63093  0.38306  1.0000
  H   H139      1.0  0.34063  0.63334  0.32406  1.0000
  H   H140      1.0  0.33162  0.65067  0.35842  1.0000
  H   H141      1.0  0.33243  0.61171  0.35595  1.0000
  H   H142      1.0  0.38546  0.65094  0.34864  1.0000
  H   H143      1.0  0.38545  0.61308  0.34918  1.0000
  H   H144      1.0  0.37774  0.63275  0.38075  1.0000
  H   H145      1.0  0.48275  0.63092  0.32127  1.0000
  H   H146      1.0  0.47137  0.65263  0.35191  1.0000
  H   H147      1.0  0.47069  0.61353  0.35433  1.0000
  H   H148      1.0  0.52550  0.65086  0.35014  1.0000
  H   H149      1.0  0.52465  0.61274  0.35132  1.0000
  H   H150      1.0  0.51359  0.63306  0.38120  1.0000
  H   H151      1.0  0.62069  0.63094  0.32116  1.0000
  H   H152      1.0  0.60561  0.64796  0.35321  1.0000
  H   H153      1.0  0.60720  0.60901  0.35076  1.0000
  H   H154      1.0  0.66028  0.64876  0.35394  1.0000
  H   H155      1.0  0.66084  0.61094  0.35371  1.0000
  H   H156      1.0  0.64692  0.62928  0.38353  1.0000
  H   H157      1.0  0.76338  0.64053  0.31867  1.0000
  H   H158      1.0  0.75183  0.65813  0.35148  1.0000
  H   H159      1.0  0.74432  0.62053  0.34605  1.0000
  H   H160      1.0  0.80609  0.64608  0.35338  1.0000
  H   H161      1.0  0.79710  0.60852  0.34916  1.0000
  H   H162      1.0  0.78612  0.62797  0.38061  1.0000
  H   H163      1.0  0.34017  0.76192  0.32589  1.0000
  H   H164      1.0  0.33858  0.79403  0.34840  1.0000
  H   H165      1.0  0.33220  0.75888  0.36436  1.0000
  H   H166      1.0  0.38998  0.77856  0.33825  1.0000
  H   H167      1.0  0.38358  0.74529  0.35404  1.0000
  H   H168      1.0  0.38315  0.77599  0.37627  1.0000
  H   H169      1.0  0.47601  0.75626  0.33405  1.0000
  H   H170      1.0  0.47476  0.78822  0.35652  1.0000
  H   H171      1.0  0.47350  0.75288  0.37341  1.0000
  H   H172      1.0  0.52516  0.77653  0.33877  1.0000
  H   H173      1.0  0.52397  0.74343  0.35633  1.0000
  H   H174      1.0  0.52366  0.77449  0.37795  1.0000
  H   H175      1.0  0.60233  0.76479  0.32662  1.0000
  H   H176      1.0  0.61025  0.79673  0.34805  1.0000
  H   H177      1.0  0.59904  0.76398  0.36612  1.0000
  H   H178      1.0  0.65586  0.77156  0.33161  1.0000
  H   H179      1.0  0.64500  0.73964  0.34868  1.0000
  H   H180      1.0  0.65193  0.76913  0.37060  1.0000
  H   H181      1.0  0.34573  0.22377  0.46677  1.0000
  H   H182      1.0  0.33474  0.23326  0.50337  1.0000
  H   H183      1.0  0.33926  0.19590  0.49374  1.0000
  H   H184      1.0  0.38711  0.24175  0.49958  1.0000
  H   H185      1.0  0.39260  0.20840  0.48397  1.0000
  H   H186      1.0  0.38342  0.21122  0.52157  1.0000
  H   H187      1.0  0.48568  0.23096  0.47887  1.0000
  H   H188      1.0  0.46874  0.21859  0.51187  1.0000
  H   H189      1.0  0.47122  0.19505  0.48064  1.0000
  H   H190      1.0  0.52137  0.21561  0.51880  1.0000
  H   H191      1.0  0.52516  0.19617  0.48684  1.0000
  H   H192      1.0  0.50751  0.17883  0.51827  1.0000
  H   H193      1.0  0.61972  0.21630  0.46889  1.0000
  H   H194      1.0  0.61146  0.22562  0.50641  1.0000
  H   H195      1.0  0.62156  0.18901  0.49670  1.0000
  H   H196      1.0  0.66119  0.24262  0.49366  1.0000
  H   H197      1.0  0.67098  0.20815  0.48342  1.0000
  H   H198      1.0  0.66333  0.21596  0.52040  1.0000
  H   H199      1.0  0.21431  0.35635  0.46640  1.0000
  H   H200      1.0  0.20472  0.37624  0.49898  1.0000
  H   H201      1.0  0.20172  0.33746  0.49863  1.0000
  H   H202      1.0  0.25782  0.37193  0.49600  1.0000
  H   H203      1.0  0.25591  0.33403  0.49402  1.0000
  H   H204      1.0  0.24634  0.35193  0.52587  1.0000
  H   H205      1.0  0.35126  0.35435  0.46383  1.0000
  H   H206      1.0  0.33680  0.37160  0.49608  1.0000
  H   H207      1.0  0.33800  0.33257  0.49366  1.0000
  H   H208      1.0  0.39104  0.37242  0.49666  1.0000
  H   H209      1.0  0.39189  0.33454  0.49575  1.0000
  H   H210      1.0  0.37788  0.35228  0.52596  1.0000
  H   H211      1.0  0.48697  0.35179  0.46380  1.0000
  H   H212      1.0  0.47391  0.37353  0.49373  1.0000
  H   H213      1.0  0.47300  0.33455  0.49625  1.0000
  H   H214      1.0  0.52805  0.37152  0.49424  1.0000
  H   H215      1.0  0.52679  0.33358  0.49639  1.0000
  H   H216      1.0  0.51530  0.35452  0.52552  1.0000
  H   H217      1.0  0.62932  0.35428  0.46379  1.0000
  H   H218      1.0  0.61619  0.37620  0.49364  1.0000
  H   H219      1.0  0.61473  0.33718  0.49602  1.0000
  H   H220      1.0  0.66971  0.37427  0.49613  1.0000
  H   H221      1.0  0.66939  0.33640  0.49641  1.0000
  H   H222      1.0  0.65607  0.35573  0.52597  1.0000
  H   H223      1.0  0.75918  0.37186  0.47153  1.0000
  H   H224      1.0  0.75836  0.37934  0.51037  1.0000
  H   H225      1.0  0.74210  0.34704  0.49624  1.0000
  H   H226      1.0  0.80737  0.36080  0.49420  1.0000
  H   H227      1.0  0.79050  0.32982  0.48034  1.0000
  H   H228      1.0  0.79001  0.33510  0.51827  1.0000
  H   H229      1.0  0.21236  0.48536  0.46881  1.0000
  H   H230      1.0  0.20218  0.50914  0.49830  1.0000
  H   H231      1.0  0.20305  0.47041  0.50408  1.0000
  H   H232      1.0  0.25526  0.51020  0.49356  1.0000
  H   H233      1.0  0.25704  0.47228  0.49608  1.0000
  H   H234      1.0  0.24707  0.49282  0.52613  1.0000
  H   H235      1.0  0.34780  0.49045  0.46390  1.0000
  H   H236      1.0  0.33634  0.51009  0.49608  1.0000
  H   H237      1.0  0.33711  0.47101  0.49633  1.0000
  H   H238      1.0  0.39046  0.51014  0.49143  1.0000
  H   H239      1.0  0.39075  0.47219  0.49325  1.0000
  H   H240      1.0  0.38054  0.49254  0.52335  1.0000
  H   H241      1.0  0.49007  0.49011  0.46388  1.0000
  H   H242      1.0  0.47677  0.51192  0.49371  1.0000
  H   H243      1.0  0.47564  0.47288  0.49616  1.0000
  H   H244      1.0  0.53047  0.51020  0.49585  1.0000
  H   H245      1.0  0.53006  0.47230  0.49663  1.0000
  H   H246      1.0  0.51666  0.49211  0.52602  1.0000
  H   H247      1.0  0.62788  0.49064  0.46324  1.0000
  H   H248      1.0  0.61377  0.51172  0.49328  1.0000
  H   H249      1.0  0.61251  0.47270  0.49452  1.0000
  H   H250      1.0  0.66730  0.51027  0.49662  1.0000
  H   H251      1.0  0.66726  0.47238  0.49621  1.0000
  H   H252      1.0  0.65342  0.49088  0.52596  1.0000
  H   H253      1.0  0.77386  0.47096  0.47118  1.0000
  H   H254      1.0  0.76907  0.50944  0.47369  1.0000
  H   H255      1.0  0.74278  0.48535  0.48854  1.0000
  H   H256      1.0  0.80629  0.49324  0.51144  1.0000
  H   H257      1.0  0.77967  0.46858  0.52623  1.0000
  H   H258      1.0  0.77402  0.50537  0.52903  1.0000
  H   H259      1.0  0.21234  0.63083  0.46855  1.0000
  H   H260      1.0  0.20172  0.64773  0.50265  1.0000
  H   H261      1.0  0.20498  0.60895  0.50032  1.0000
  H   H262      1.0  0.25586  0.65102  0.49332  1.0000
  H   H263      1.0  0.25736  0.61324  0.49552  1.0000
  H   H264      1.0  0.24815  0.63365  0.52606  1.0000
  H   H265      1.0  0.34990  0.63042  0.46331  1.0000
  H   H266      1.0  0.33560  0.65008  0.49395  1.0000
  H   H267      1.0  0.33477  0.61092  0.49386  1.0000
  H   H268      1.0  0.38949  0.64837  0.49669  1.0000
  H   H269      1.0  0.38892  0.61049  0.49605  1.0000
  H   H270      1.0  0.37525  0.62879  0.52596  1.0000
  H   H271      1.0  0.48779  0.63690  0.46520  1.0000
  H   H272      1.0  0.47563  0.65292  0.49901  1.0000
  H   H273      1.0  0.47500  0.61406  0.49428  1.0000
  H   H274      1.0  0.53014  0.65091  0.49612  1.0000
  H   H275      1.0  0.52869  0.61302  0.49407  1.0000
  H   H276      1.0  0.51800  0.63089  0.52564  1.0000
  H   H277      1.0  0.62491  0.63089  0.46386  1.0000
  H   H278      1.0  0.61205  0.64987  0.49586  1.0000
  H   H279      1.0  0.60953  0.61090  0.49387  1.0000
  H   H280      1.0  0.66606  0.64509  0.49667  1.0000
  H   H281      1.0  0.66348  0.60752  0.49592  1.0000
  H   H282      1.0  0.65120  0.62639  0.52611  1.0000
  H   H283      1.0  0.76763  0.61358  0.46495  1.0000
  H   H284      1.0  0.73821  0.62289  0.48833  1.0000
  H   H285      1.0  0.76159  0.59391  0.49848  1.0000
  H   H286      1.0  0.77737  0.65811  0.49595  1.0000
  H   H287      1.0  0.80394  0.63109  0.50307  1.0000
  H   H288      1.0  0.77382  0.63807  0.52744  1.0000
  H   H289      1.0  0.33921  0.75965  0.47429  1.0000
  H   H290      1.0  0.33914  0.79237  0.49602  1.0000
  H   H291      1.0  0.33652  0.75757  0.51358  1.0000
  H   H292      1.0  0.38971  0.77696  0.47843  1.0000
  H   H293      1.0  0.38621  0.74543  0.49842  1.0000
  H   H294      1.0  0.38717  0.77806  0.51762  1.0000
  H   H295      1.0  0.47754  0.76153  0.47399  1.0000
  H   H296      1.0  0.48062  0.79382  0.49594  1.0000
  H   H297      1.0  0.47458  0.75924  0.51344  1.0000
  H   H298      1.0  0.52907  0.77490  0.47859  1.0000
  H   H299      1.0  0.52332  0.74254  0.49675  1.0000
  H   H300      1.0  0.52702  0.77371  0.51769  1.0000
  H   H301      1.0  0.61022  0.76434  0.47400  1.0000
  H   H302      1.0  0.60863  0.78644  0.50676  1.0000
  H   H303      1.0  0.60314  0.74793  0.50901  1.0000
  H   H304      1.0  0.65927  0.77622  0.48899  1.0000
  H   H305      1.0  0.65442  0.73939  0.49618  1.0000
  H   H306      1.0  0.65348  0.76409  0.52503  1.0000
  H   H307      1.0  0.34333  0.21634  0.61635  1.0000
  H   H308      1.0  0.33521  0.22974  0.65262  1.0000
  H   H309      1.0  0.33851  0.19131  0.64639  1.0000
  H   H310      1.0  0.38747  0.23633  0.64616  1.0000
  H   H311      1.0  0.39103  0.20187  0.63140  1.0000
  H   H312      1.0  0.38373  0.20587  0.66874  1.0000
  H   H313      1.0  0.46675  0.21319  0.62645  1.0000
  H   H314      1.0  0.48078  0.24334  0.64639  1.0000
  H   H315      1.0  0.47159  0.21090  0.66564  1.0000
  H   H316      1.0  0.52040  0.21586  0.62067  1.0000
  H   H317      1.0  0.50934  0.18243  0.63843  1.0000
  H   H318      1.0  0.52488  0.21285  0.65821  1.0000
  H   H319      1.0  0.61428  0.21901  0.61307  1.0000
  H   H320      1.0  0.60492  0.22027  0.65129  1.0000
  H   H321      1.0  0.62147  0.18838  0.63620  1.0000
  H   H322      1.0  0.65055  0.24812  0.64206  1.0000
  H   H323      1.0  0.66526  0.21846  0.62513  1.0000
  H   H324      1.0  0.65888  0.21848  0.66363  1.0000
  H   H325      1.0  0.21428  0.35620  0.61164  1.0000
  H   H326      1.0  0.20343  0.37154  0.64635  1.0000
  H   H327      1.0  0.20251  0.33285  0.64103  1.0000
  H   H328      1.0  0.25777  0.36939  0.64114  1.0000
  H   H329      1.0  0.25594  0.33176  0.63884  1.0000
  H   H330      1.0  0.24630  0.34935  0.67100  1.0000
  H   H331      1.0  0.35260  0.35453  0.60709  1.0000
  H   H332      1.0  0.33898  0.37403  0.63842  1.0000
  H   H333      1.0  0.33989  0.33490  0.63868  1.0000
  H   H334      1.0  0.39320  0.37480  0.63891  1.0000
  H   H335      1.0  0.39376  0.33666  0.63852  1.0000
  H   H336      1.0  0.38075  0.35504  0.66860  1.0000
  H   H337      1.0  0.49227  0.35702  0.60654  1.0000
  H   H338      1.0  0.47776  0.37393  0.63898  1.0000
  H   H339      1.0  0.47934  0.33492  0.63625  1.0000
  H   H340      1.0  0.53122  0.37621  0.64153  1.0000
  H   H341      1.0  0.53396  0.33909  0.63577  1.0000
  H   H342      1.0  0.51974  0.35199  0.66828  1.0000
  H   H343      1.0  0.62984  0.35689  0.60638  1.0000
  H   H344      1.0  0.61498  0.37820  0.63585  1.0000
  H   H345      1.0  0.61621  0.33930  0.63878  1.0000
  H   H346      1.0  0.66930  0.37932  0.63820  1.0000
  H   H347      1.0  0.66999  0.34148  0.63992  1.0000
  H   H348      1.0  0.65586  0.36165  0.66858  1.0000
  H   H349      1.0  0.77243  0.34879  0.60466  1.0000
  H   H350      1.0  0.76029  0.37870  0.62636  1.0000
  H   H351      1.0  0.74919  0.34256  0.63541  1.0000
  H   H352      1.0  0.81395  0.36431  0.63825  1.0000
  H   H353      1.0  0.79760  0.33031  0.65134  1.0000
  H   H354      1.0  0.78854  0.36205  0.66840  1.0000
  H   H355      1.0  0.21199  0.49488  0.61120  1.0000
  H   H356      1.0  0.20453  0.51431  0.64461  1.0000
  H   H357      1.0  0.20124  0.47551  0.64380  1.0000
  H   H358      1.0  0.25737  0.51010  0.63789  1.0000
  H   H359      1.0  0.25521  0.47214  0.63614  1.0000
  H   H360      1.0  0.24762  0.49042  0.66849  1.0000
  H   H361      1.0  0.35310  0.49260  0.60883  1.0000
  H   H362      1.0  0.34162  0.51188  0.64114  1.0000
  H   H363      1.0  0.34111  0.47275  0.64064  1.0000
  H   H364      1.0  0.39573  0.51024  0.63819  1.0000
  H   H365      1.0  0.39500  0.47231  0.63875  1.0000
  H   H366      1.0  0.38386  0.49217  0.66895  1.0000
  H   H367      1.0  0.49257  0.49508  0.60898  1.0000
  H   H368      1.0  0.47895  0.51263  0.64146  1.0000
  H   H369      1.0  0.47811  0.47367  0.63852  1.0000
  H   H370      1.0  0.53325  0.51049  0.64292  1.0000
  H   H371      1.0  0.53219  0.47248  0.64072  1.0000
  H   H372      1.0  0.51869  0.49011  0.67113  1.0000
  H   H373      1.0  0.63541  0.49237  0.60891  1.0000
  H   H374      1.0  0.61896  0.51196  0.63865  1.0000
  H   H375      1.0  0.61812  0.47290  0.63832  1.0000
  H   H376      1.0  0.67233  0.51061  0.64594  1.0000
  H   H377      1.0  0.67244  0.47270  0.64402  1.0000
  H   H378      1.0  0.65609  0.49012  0.67335  1.0000
  H   H379      1.0  0.77024  0.47831  0.60971  1.0000
  H   H380      1.0  0.76316  0.51411  0.62363  1.0000
  H   H381      1.0  0.74800  0.48289  0.64134  1.0000
  H   H382      1.0  0.81375  0.49702  0.63828  1.0000
  H   H383      1.0  0.79705  0.46736  0.65704  1.0000
  H   H384      1.0  0.79084  0.50236  0.66901  1.0000
  H   H385      1.0  0.21294  0.62556  0.61129  1.0000
  H   H386      1.0  0.19981  0.64991  0.63895  1.0000
  H   H387      1.0  0.20076  0.61146  0.64607  1.0000
  H   H388      1.0  0.25365  0.65047  0.63826  1.0000
  H   H389      1.0  0.25494  0.61294  0.64363  1.0000
  H   H390      1.0  0.24230  0.63566  0.67115  1.0000
  H   H391      1.0  0.35568  0.63090  0.60644  1.0000
  H   H392      1.0  0.34252  0.65267  0.63635  1.0000
  H   H393      1.0  0.34126  0.61369  0.63867  1.0000
  H   H394      1.0  0.39635  0.65082  0.63853  1.0000
  H   H395      1.0  0.39564  0.61282  0.63924  1.0000
  H   H396      1.0  0.38274  0.63288  0.66858  1.0000
  H   H397      1.0  0.49181  0.63075  0.60686  1.0000
  H   H398      1.0  0.47879  0.65036  0.63840  1.0000
  H   H399      1.0  0.47797  0.61128  0.63817  1.0000
  H   H400      1.0  0.53329  0.64799  0.63827  1.0000
  H   H401      1.0  0.53183  0.61016  0.63912  1.0000
  H   H402      1.0  0.51966  0.63040  0.66863  1.0000
  H   H403      1.0  0.63181  0.62862  0.60714  1.0000
  H   H404      1.0  0.61713  0.64753  0.63837  1.0000
  H   H405      1.0  0.61464  0.60862  0.63610  1.0000
  H   H406      1.0  0.67045  0.64351  0.64350  1.0000
  H   H407      1.0  0.66896  0.60566  0.64103  1.0000
  H   H408      1.0  0.65394  0.62322  0.67085  1.0000
  H   H409      1.0  0.77164  0.62869  0.60540  1.0000
  H   H410      1.0  0.74484  0.63309  0.63320  1.0000
  H   H411      1.0  0.76246  0.59890  0.62883  1.0000
  H   H412      1.0  0.79031  0.65496  0.65112  1.0000
  H   H413      1.0  0.81089  0.62264  0.64323  1.0000
  H   H414      1.0  0.78328  0.62409  0.67131  1.0000
  H   H415      1.0  0.33982  0.76650  0.62399  1.0000
  H   H416      1.0  0.34895  0.79925  0.64350  1.0000
  H   H417      1.0  0.34314  0.76622  0.66346  1.0000
  H   H418      1.0  0.39233  0.77646  0.61918  1.0000
  H   H419      1.0  0.38736  0.74484  0.63949  1.0000
  H   H420      1.0  0.39647  0.77605  0.65813  1.0000
  H   H421      1.0  0.47877  0.76396  0.61657  1.0000
  H   H422      1.0  0.48559  0.79405  0.64100  1.0000
  H   H423      1.0  0.47783  0.75902  0.65583  1.0000
  H   H424      1.0  0.53128  0.77059  0.61764  1.0000
  H   H425      1.0  0.52410  0.73983  0.63829  1.0000
  H   H426      1.0  0.53184  0.77156  0.65658  1.0000
  H   H427      1.0  0.61344  0.75455  0.61178  1.0000
  H   H428      1.0  0.61411  0.78551  0.63589  1.0000
  H   H429      1.0  0.61389  0.74954  0.65097  1.0000
  H   H430      1.0  0.66241  0.77450  0.61326  1.0000
  H   H431      1.0  0.66345  0.74132  0.63187  1.0000
  H   H432      1.0  0.66284  0.77409  0.65211  1.0000
  H   H433      1.0  0.36135  0.34435  0.76053  1.0000
  H   H434      1.0  0.34729  0.37396  0.78141  1.0000
  H   H435      1.0  0.34653  0.33783  0.79628  1.0000
  H   H436      1.0  0.40183  0.37139  0.78423  1.0000
  H   H437      1.0  0.39908  0.33799  0.80109  1.0000
  H   H438      1.0  0.38566  0.36950  0.82009  1.0000
  H   H439      1.0  0.51394  0.36024  0.75411  1.0000
  H   H440      1.0  0.49049  0.38496  0.77266  1.0000
  H   H441      1.0  0.48336  0.34690  0.77355  1.0000
  H   H442      1.0  0.53443  0.37660  0.80360  1.0000
  H   H443      1.0  0.52787  0.33979  0.80386  1.0000
  H   H444      1.0  0.50315  0.36391  0.82261  1.0000
  H   H445      1.0  0.63156  0.35131  0.75351  1.0000
  H   H446      1.0  0.60850  0.37428  0.77434  1.0000
  H   H447      1.0  0.61145  0.33674  0.78345  1.0000
  H   H448      1.0  0.65980  0.38129  0.78995  1.0000
  H   H449      1.0  0.66217  0.34488  0.79814  1.0000
  H   H450      1.0  0.63945  0.36806  0.82109  1.0000
  H   H451      1.0  0.35884  0.49506  0.74973  1.0000
  H   H452      1.0  0.34179  0.51439  0.77883  1.0000
  H   H453      1.0  0.34105  0.47559  0.77834  1.0000
  H   H454      1.0  0.39456  0.51258  0.78803  1.0000
  H   H455      1.0  0.39437  0.47539  0.78653  1.0000
  H   H456      1.0  0.37701  0.49285  0.81797  1.0000
  H   H457      1.0  0.50931  0.49235  0.75156  1.0000
  H   H458      1.0  0.48910  0.51454  0.77612  1.0000
  H   H459      1.0  0.48645  0.47589  0.77826  1.0000
  H   H460      1.0  0.54058  0.51031  0.79326  1.0000
  H   H461      1.0  0.53660  0.47343  0.79675  1.0000
  H   H462      1.0  0.51606  0.49773  0.82110  1.0000
  H   H463      1.0  0.64895  0.49306  0.74935  1.0000
  H   H464      1.0  0.62304  0.51256  0.77070  1.0000
  H   H465      1.0  0.62351  0.47383  0.77125  1.0000
  H   H466      1.0  0.67103  0.51226  0.79618  1.0000
  H   H467      1.0  0.67038  0.47500  0.79754  1.0000
  H   H468      1.0  0.64378  0.49530  0.81896  1.0000
  H   H469      1.0  0.36087  0.63811  0.75390  1.0000
  H   H470      1.0  0.34531  0.65342  0.78629  1.0000
  H   H471      1.0  0.34470  0.61512  0.78089  1.0000
  H   H472      1.0  0.39910  0.65077  0.79157  1.0000
  H   H473      1.0  0.39806  0.61383  0.78672  1.0000
  H   H474      1.0  0.38138  0.62823  0.81963  1.0000
  H   H475      1.0  0.50094  0.63328  0.75119  1.0000
  H   H476      1.0  0.48065  0.64635  0.78171  1.0000
  H   H477      1.0  0.48147  0.60843  0.77375  1.0000
  H   H478      1.0  0.53351  0.64350  0.79359  1.0000
  H   H479      1.0  0.53311  0.60659  0.78795  1.0000
  H   H480      1.0  0.51319  0.62045  0.81884  1.0000
  H   H481      1.0  0.63149  0.63109  0.75464  1.0000
  H   H482      1.0  0.61489  0.64804  0.78601  1.0000
  H   H483      1.0  0.61637  0.60909  0.78333  1.0000
  H   H484      1.0  0.66769  0.65011  0.79080  1.0000
  H   H485      1.0  0.67093  0.61192  0.78880  1.0000
  H   H486      1.0  0.65352  0.62789  0.81840  1.0000
  H   H487      1.0  0.12885  0.25057  0.14598  1.0000
  O   O1        1.0  0.14802  0.24461  0.15527  1.0000
  H   H488      1.0  0.14782  0.25333  0.17783  1.0000
  H   H489      1.0  0.14789  0.28542  0.22096  1.0000
  O   O2        1.0  0.14822  0.26398  0.21011  1.0000
  H   H490      1.0  0.14685  0.24854  0.22633  1.0000
  H   H491      1.0  0.13100  0.25696  0.30888  1.0000
  O   O3        1.0  0.14123  0.23717  0.30757  1.0000
  H   H492      1.0  0.16234  0.24098  0.31299  1.0000
  H   H493      1.0  0.13816  0.23303  0.36976  1.0000
  O   O4        1.0  0.14547  0.24855  0.38412  1.0000
  H   H494      1.0  0.14357  0.27278  0.37406  1.0000
  H   H495      1.0  0.15513  0.23857  0.40665  1.0000
  O   O5        1.0  0.16439  0.22698  0.43032  1.0000
  H   H496      1.0  0.15466  0.23353  0.45099  1.0000
  H   H497      1.0  0.11654  0.24070  0.47624  1.0000
  O   O6        1.0  0.13809  0.24363  0.47947  1.0000
  H   H498      1.0  0.14079  0.26600  0.48659  1.0000
  H   H499      1.0  0.15649  0.24529  0.58242  1.0000
  O   O7        1.0  0.16906  0.23007  0.55914  1.0000
  H   H500      1.0  0.16459  0.23773  0.53834  1.0000
  H   H501      1.0  0.12719  0.24300  0.60637  1.0000
  O   O8        1.0  0.14330  0.25670  0.60003  1.0000
  H   H502      1.0  0.14472  0.28243  0.61707  1.0000
  H   H503      1.0  0.16109  0.23919  0.70125  1.0000
  O   O9        1.0  0.16892  0.22480  0.68495  1.0000
  H   H504      1.0  0.16052  0.23046  0.66482  1.0000
  H   H505      1.0  0.13340  0.25031  0.74374  1.0000
  O   O10       1.0  0.14354  0.26205  0.72757  1.0000
  H   H506      1.0  0.14766  0.28286  0.73640  1.0000
  H   H507      1.0  0.11965  0.25030  0.82876  1.0000
  O   O11       1.0  0.13828  0.26062  0.83423  1.0000
  H   H508      1.0  0.13673  0.28420  0.82944  1.0000
  H   H509      1.0  0.13331  0.33733  0.16001  1.0000
  O   O12       1.0  0.14133  0.31610  0.15527  1.0000
  H   H510      1.0  0.15321  0.30970  0.17342  1.0000
  H   H511      1.0  0.12875  0.32684  0.23157  1.0000
  O   O13       1.0  0.14574  0.31377  0.23747  1.0000
  H   H512      1.0  0.16363  0.32910  0.24097  1.0000
  H   H513      1.0  0.13361  0.33679  0.30230  1.0000
  O   O14       1.0  0.13203  0.31369  0.30481  1.0000
  H   H514      1.0  0.13695  0.30551  0.28410  1.0000
  H   H515      1.0  0.13792  0.30119  0.33783  1.0000
  O   O15       1.0  0.14175  0.29743  0.36087  1.0000
  H   H516      1.0  0.13931  0.31792  0.37198  1.0000
  H   H517      1.0  0.12367  0.33717  0.43864  1.0000
  O   O16       1.0  0.12032  0.31503  0.44075  1.0000
  H   H518      1.0  0.12703  0.30910  0.46193  1.0000
  H   H519      1.0  0.13140  0.30134  0.51985  1.0000
  O   O17       1.0  0.14133  0.29874  0.49765  1.0000
  H   H520      1.0  0.16180  0.30675  0.49901  1.0000
  H   H521      1.0  0.12158  0.32879  0.55654  1.0000
  O   O18       1.0  0.12040  0.30627  0.55006  1.0000
  H   H522      1.0  0.12597  0.29250  0.56708  1.0000
  H   H523      1.0  0.13564  0.30702  0.65267  1.0000
  O   O19       1.0  0.14365  0.30340  0.62974  1.0000
  H   H524      1.0  0.14879  0.32496  0.61935  1.0000
  H   H525      1.0  0.13480  0.34065  0.68427  1.0000
  O   O20       1.0  0.12733  0.31855  0.68025  1.0000
  H   H526      1.0  0.13011  0.30610  0.69885  1.0000
  H   H527      1.0  0.13992  0.34087  0.75315  1.0000
  O   O21       1.0  0.15075  0.32110  0.75005  1.0000
  H   H528      1.0  0.17207  0.32728  0.74848  1.0000
  H   H529      1.0  0.13064  0.33559  0.82290  1.0000
  O   O22       1.0  0.14169  0.31449  0.82131  1.0000
  H   H530      1.0  0.15178  0.31485  0.80096  1.0000
  H   H531      1.0  0.12334  0.38939  0.16100  1.0000
  O   O23       1.0  0.12733  0.37038  0.17245  1.0000
  H   H532      1.0  0.11746  0.37129  0.19394  1.0000
  H   H533      1.0  0.09886  0.37170  0.24409  1.0000
  O   O24       1.0  0.11333  0.37541  0.22756  1.0000
  H   H534      1.0  0.12383  0.39601  0.23096  1.0000
  H   H535      1.0  0.14210  0.39196  0.29674  1.0000
  O   O25       1.0  0.14128  0.37027  0.28991  1.0000
  H   H536      1.0  0.15687  0.36719  0.27353  1.0000
  H   H537      1.0  0.12557  0.36419  0.36346  1.0000
  O   O26       1.0  0.13638  0.35163  0.37845  1.0000
  H   H538      1.0  0.13515  0.36182  0.39946  1.0000
  H   H539      1.0  0.12919  0.39920  0.43519  1.0000
  O   O27       1.0  0.13685  0.37763  0.43256  1.0000
  H   H540      1.0  0.15871  0.37905  0.43588  1.0000
  H   H541      1.0  0.13531  0.36129  0.49245  1.0000
  O   O28       1.0  0.14845  0.36888  0.50882  1.0000
  H   H542      1.0  0.15369  0.39416  0.50631  1.0000
  H   H543      1.0  0.11393  0.37854  0.56211  1.0000
  O   O29       1.0  0.12949  0.36294  0.55997  1.0000
  H   H544      1.0  0.13971  0.36510  0.53557  1.0000
  H   H545      1.0  0.14762  0.36913  0.62522  1.0000
  O   O30       1.0  0.15273  0.35346  0.61002  1.0000
  H   H546      1.0  0.14428  0.35914  0.58765  1.0000
  H   H547      1.0  0.14153  0.39262  0.68869  1.0000
  O   O31       1.0  0.14829  0.37056  0.69010  1.0000
  H   H548      1.0  0.16571  0.36956  0.70416  1.0000
  H   H549      1.0  0.10875  0.37871  0.74448  1.0000
  O   O32       1.0  0.12483  0.37782  0.75992  1.0000
  H   H550      1.0  0.13454  0.39965  0.76079  1.0000
  H   H551      1.0  0.12346  0.38401  0.82893  1.0000
  O   O33       1.0  0.11806  0.36555  0.81738  1.0000
  H   H552      1.0  0.11894  0.37040  0.79409  1.0000
  H   H553      1.0  0.13509  0.45364  0.16273  1.0000
  O   O34       1.0  0.13882  0.43073  0.16374  1.0000
  H   H554      1.0  0.14190  0.42632  0.18622  1.0000
  H   H555      1.0  0.13343  0.44776  0.23077  1.0000
  O   O35       1.0  0.14110  0.42532  0.22764  1.0000
  H   H556      1.0  0.16126  0.42371  0.23660  1.0000
  H   H557      1.0  0.14802  0.46011  0.30071  1.0000
  O   O36       1.0  0.15071  0.42959  0.30767  1.0000
  H   H558      1.0  0.14767  0.43005  0.33540  1.0000
  H   H559      1.0  0.13849  0.45554  0.37258  1.0000
  O   O37       1.0  0.14578  0.43232  0.36283  1.0000
  H   H560      1.0  0.16276  0.42345  0.37429  1.0000
  H   H561      1.0  0.11445  0.45073  0.43640  1.0000
  O   O38       1.0  0.12969  0.43482  0.44002  1.0000
  H   H562      1.0  0.14923  0.44311  0.43334  1.0000
  H   H563      1.0  0.14943  0.43314  0.48912  1.0000
  O   O39       1.0  0.15728  0.42230  0.50725  1.0000
  H   H564      1.0  0.14861  0.43166  0.52934  1.0000
  H   H565      1.0  0.13342  0.46596  0.55168  1.0000
  O   O40       1.0  0.13616  0.44322  0.55368  1.0000
  H   H566      1.0  0.14012  0.43855  0.57671  1.0000
  H   H567      1.0  0.14467  0.45453  0.62684  1.0000
  O   O41       1.0  0.14681  0.43645  0.61163  1.0000
  H   H568      1.0  0.16737  0.42861  0.61343  1.0000
  H   H569      1.0  0.12892  0.44325  0.67368  1.0000
  O   O42       1.0  0.13664  0.42947  0.68997  1.0000
  H   H570      1.0  0.15611  0.43809  0.69655  1.0000
  H   H571      1.0  0.13524  0.45059  0.75887  1.0000
  O   O43       1.0  0.14604  0.42995  0.76485  1.0000
  H   H572      1.0  0.16721  0.43157  0.75867  1.0000
  H   H573      1.0  0.13627  0.46049  0.82839  1.0000
  O   O44       1.0  0.14127  0.43715  0.82988  1.0000
  H   H574      1.0  0.14439  0.43085  0.80805  1.0000
  H   H575      1.0  0.13248  0.51372  0.16388  1.0000
  O   O45       1.0  0.13895  0.48875  0.17248  1.0000
  H   H576      1.0  0.12973  0.48722  0.19399  1.0000
  H   H577      1.0  0.11165  0.48971  0.24348  1.0000
  O   O46       1.0  0.12727  0.48137  0.23007  1.0000
  H   H578      1.0  0.14921  0.49121  0.23603  1.0000
  H   H579      1.0  0.13914  0.50812  0.30716  1.0000
  O   O47       1.0  0.14838  0.48393  0.29482  1.0000
  H   H580      1.0  0.16312  0.48715  0.27793  1.0000
  H   H581      1.0  0.12850  0.49720  0.36678  1.0000
  O   O48       1.0  0.13196  0.48147  0.38237  1.0000
  H   H582      1.0  0.12617  0.48968  0.40617  1.0000
  H   H583      1.0  0.11655  0.52285  0.43100  1.0000
  O   O49       1.0  0.11843  0.50004  0.43256  1.0000
  H   H584      1.0  0.12901  0.49750  0.45432  1.0000
  H   H585      1.0  0.13696  0.49513  0.50376  1.0000
  O   O50       1.0  0.14350  0.50123  0.48276  1.0000
  H   H586      1.0  0.15191  0.52277  0.48563  1.0000
  H   H587      1.0  0.12848  0.52151  0.55182  1.0000
  O   O51       1.0  0.13902  0.50141  0.54751  1.0000
  H   H588      1.0  0.16009  0.50489  0.55337  1.0000
  H   H589      1.0  0.14450  0.48837  0.67327  1.0000
  O   O52       1.0  0.14113  0.48125  0.64985  1.0000
  H   H590      1.0  0.13093  0.49794  0.63921  1.0000
  H   H591      1.0  0.14145  0.52428  0.69573  1.0000
  O   O53       1.0  0.14593  0.50127  0.70292  1.0000
  H   H592      1.0  0.16575  0.50022  0.71579  1.0000
  H   H593      1.0  0.10112  0.48493  0.75368  1.0000
  O   O54       1.0  0.12274  0.48134  0.75228  1.0000
  H   H594      1.0  0.13053  0.49055  0.73095  1.0000
  H   H595      1.0  0.13287  0.51515  0.82521  1.0000
  O   O55       1.0  0.13446  0.49220  0.81846  1.0000
  H   H596      1.0  0.13103  0.49218  0.79587  1.0000
  H   H597      1.0  0.12902  0.55290  0.14568  1.0000
  O   O56       1.0  0.12676  0.53988  0.16380  1.0000
  H   H598      1.0  0.13408  0.54918  0.18767  1.0000
  H   H599      1.0  0.13942  0.57614  0.22191  1.0000
  O   O57       1.0  0.14591  0.55562  0.21238  1.0000
  H   H600      1.0  0.16853  0.55641  0.20645  1.0000
  H   H601      1.0  0.12380  0.54456  0.30189  1.0000
  O   O58       1.0  0.13193  0.53054  0.31721  1.0000
  H   H602      1.0  0.14276  0.54204  0.34060  1.0000
  H   H603      1.0  0.14071  0.57756  0.36932  1.0000
  O   O59       1.0  0.15060  0.55314  0.36272  1.0000
  H   H604      1.0  0.17077  0.54965  0.37076  1.0000
  H   H605      1.0  0.11691  0.57639  0.42648  1.0000
  O   O60       1.0  0.12725  0.55835  0.43485  1.0000
  H   H606      1.0  0.14901  0.56125  0.43136  1.0000
  H   H607      1.0  0.15479  0.57340  0.49111  1.0000
  O   O61       1.0  0.16442  0.55354  0.49517  1.0000
  H   H608      1.0  0.17755  0.55600  0.51368  1.0000
  H   H609      1.0  0.10767  0.57087  0.56550  1.0000
  O   O62       1.0  0.12386  0.55634  0.56098  1.0000
  H   H610      1.0  0.14194  0.56386  0.57173  1.0000
  H   H611      1.0  0.15075  0.58507  0.62337  1.0000
  O   O63       1.0  0.15952  0.56316  0.63003  1.0000
  H   H612      1.0  0.17856  0.55892  0.61971  1.0000
  H   H613      1.0  0.12816  0.56938  0.68867  1.0000
  O   O64       1.0  0.13659  0.55075  0.67998  1.0000
  H   H614      1.0  0.14770  0.55515  0.65863  1.0000
  H   H615      1.0  0.13131  0.57839  0.76144  1.0000
  O   O65       1.0  0.14131  0.55798  0.76752  1.0000
  H   H616      1.0  0.16165  0.55656  0.75911  1.0000
  H   H617      1.0  0.13087  0.56658  0.83430  1.0000
  O   O66       1.0  0.13432  0.54714  0.82368  1.0000
  H   H618      1.0  0.13809  0.55188  0.80034  1.0000
  H   H619      1.0  0.13122  0.64520  0.17028  1.0000
  O   O67       1.0  0.13672  0.62215  0.16503  1.0000
  H   H620      1.0  0.13307  0.61092  0.18431  1.0000
  H   H621      1.0  0.11704  0.61851  0.23863  1.0000
  O   O68       1.0  0.13443  0.60779  0.23027  1.0000
  H   H622      1.0  0.15383  0.61943  0.23645  1.0000
  H   H623      1.0  0.12921  0.64141  0.30779  1.0000
  O   O69       1.0  0.13668  0.62225  0.31974  1.0000
  H   H624      1.0  0.15143  0.61121  0.30727  1.0000
  H   H625      1.0  0.13241  0.61359  0.35112  1.0000
  O   O70       1.0  0.13192  0.60250  0.37252  1.0000
  H   H626      1.0  0.12867  0.61386  0.39321  1.0000
  H   H627      1.0  0.12356  0.65043  0.42706  1.0000
  O   O71       1.0  0.12517  0.62694  0.42492  1.0000
  H   H628      1.0  0.14128  0.62092  0.43915  1.0000
  H   H629      1.0  0.11871  0.61846  0.48783  1.0000
  O   O72       1.0  0.13996  0.62093  0.49320  1.0000
  H   H630      1.0  0.14379  0.64366  0.49370  1.0000
  H   H631      1.0  0.12988  0.64930  0.56130  1.0000
  O   O73       1.0  0.12778  0.62653  0.55889  1.0000
  H   H632      1.0  0.13473  0.62084  0.53796  1.0000
  H   H633      1.0  0.14322  0.63299  0.62418  1.0000
  O   O74       1.0  0.13895  0.61219  0.61468  1.0000
  H   H634      1.0  0.13402  0.61559  0.59206  1.0000
  H   H635      1.0  0.13523  0.64671  0.69863  1.0000
  O   O75       1.0  0.13577  0.62326  0.70287  1.0000
  H   H636      1.0  0.15621  0.61605  0.69881  1.0000
  H   H637      1.0  0.09614  0.61055  0.75633  1.0000
  O   O76       1.0  0.11780  0.60753  0.75488  1.0000
  H   H638      1.0  0.12534  0.61548  0.73329  1.0000
  H   H639      1.0  0.13047  0.63668  0.82844  1.0000
  O   O77       1.0  0.13194  0.61485  0.82238  1.0000
  H   H640      1.0  0.12914  0.61431  0.79968  1.0000
  H   H641      1.0  0.12210  0.69317  0.17478  1.0000
  O   O78       1.0  0.12453  0.67271  0.18408  1.0000
  H   H642      1.0  0.12908  0.67553  0.20730  1.0000
  H   H643      1.0  0.13136  0.67812  0.26218  1.0000
  O   O79       1.0  0.13903  0.68153  0.24015  1.0000
  H   H644      1.0  0.16060  0.68530  0.24218  1.0000
  H   H645      1.0  0.09797  0.67299  0.29374  1.0000
  O   O80       1.0  0.11983  0.67138  0.29518  1.0000
  H   H646      1.0  0.12648  0.68225  0.31778  1.0000
  H   H647      1.0  0.12956  0.71511  0.35158  1.0000
  O   O81       1.0  0.13197  0.69123  0.34502  1.0000
  H   H648      1.0  0.14529  0.67966  0.35840  1.0000
  H   H649      1.0  0.12580  0.70210  0.42855  1.0000
  O   O82       1.0  0.12729  0.68172  0.43757  1.0000
  H   H650      1.0  0.13747  0.68265  0.45870  1.0000
  H   H651      1.0  0.14164  0.70225  0.50039  1.0000
  O   O83       1.0  0.15069  0.68141  0.49237  1.0000
  H   H652      1.0  0.17245  0.68478  0.49116  1.0000
  H   H653      1.0  0.13316  0.70561  0.56899  1.0000
  O   O84       1.0  0.14129  0.68406  0.57251  1.0000
  H   H654      1.0  0.16284  0.68531  0.56660  1.0000
  H   H655      1.0  0.14229  0.67665  0.64881  1.0000
  O   O85       1.0  0.15036  0.66676  0.63007  1.0000
  H   H656      1.0  0.14442  0.67732  0.61031  1.0000
  H   H657      1.0  0.13359  0.70164  0.69395  1.0000
  O   O86       1.0  0.14139  0.67903  0.69500  1.0000
  H   H658      1.0  0.16316  0.68059  0.69869  1.0000
  H   H659      1.0  0.13568  0.68019  0.75113  1.0000
  O   O87       1.0  0.14814  0.67155  0.76738  1.0000
  H   H660      1.0  0.16443  0.65793  0.75805  1.0000
  H   H661      1.0  0.13301  0.69882  0.82392  1.0000
  O   O88       1.0  0.14119  0.67658  0.82472  1.0000
  H   H662      1.0  0.14449  0.67267  0.80142  1.0000
  H   H663      1.0  0.10250  0.74418  0.16912  1.0000
  O   O89       1.0  0.12257  0.73587  0.17259  1.0000
  H   H664      1.0  0.12946  0.74209  0.19446  1.0000
  H   H665      1.0  0.13747  0.75162  0.24751  1.0000
  O   O90       1.0  0.14361  0.75308  0.22508  1.0000
  H   H666      1.0  0.16466  0.74635  0.22355  1.0000
  H   H667      1.0  0.12933  0.75183  0.30768  1.0000
  O   O91       1.0  0.13895  0.74815  0.28748  1.0000
  H   H668      1.0  0.15784  0.73700  0.29159  1.0000
  H   H669      1.0  0.11682  0.75146  0.37413  1.0000
  O   O92       1.0  0.12968  0.74361  0.35765  1.0000
  H   H670      1.0  0.15329  0.74989  0.36217  1.0000
  H   H671      1.0  0.15342  0.77590  0.43586  1.0000
  O   O93       1.0  0.14368  0.75568  0.43255  1.0000
  H   H672      1.0  0.16100  0.74170  0.43138  1.0000
  H   H673      1.0  0.11964  0.73992  0.48895  1.0000
  O   O94       1.0  0.13419  0.73354  0.50475  1.0000
  H   H674      1.0  0.15671  0.74450  0.49903  1.0000
  H   H675      1.0  0.12812  0.73951  0.53858  1.0000
  O   O95       1.0  0.12977  0.74074  0.56245  1.0000
  H   H676      1.0  0.14946  0.74995  0.56640  1.0000
  H   H677      1.0  0.12409  0.74374  0.61452  1.0000
  O   O96       1.0  0.13558  0.74400  0.63388  1.0000
  H   H678      1.0  0.15813  0.74403  0.62984  1.0000
  H   H679      1.0  0.12894  0.73889  0.66646  1.0000
  O   O97       1.0  0.12973  0.73356  0.68995  1.0000
  H   H680      1.0  0.14613  0.74555  0.69915  1.0000
  H   H681      1.0  0.11797  0.74951  0.74282  1.0000
  O   O98       1.0  0.13194  0.75308  0.75987  1.0000
  H   H682      1.0  0.15312  0.75773  0.75113  1.0000
  H   H683      1.0  0.12852  0.73864  0.79232  1.0000
  O   O99       1.0  0.13199  0.73100  0.81458  1.0000
  H   H684      1.0  0.15371  0.73750  0.81885  1.0000
  H   H685      1.0  0.18569  0.19398  0.10614  1.0000
  O   O100      1.0  0.19673  0.18032  0.12007  1.0000
  H   H686      1.0  0.19158  0.18658  0.14142  1.0000
  H   H687      1.0  0.16458  0.19385  0.18616  1.0000
  O   O101      1.0  0.18636  0.19089  0.18729  1.0000
  H   H688      1.0  0.19647  0.21281  0.18540  1.0000
  H   H689      1.0  0.20032  0.18436  0.22149  1.0000
  O   O102      1.0  0.21141  0.18109  0.24161  1.0000
  H   H690      1.0  0.21853  0.20096  0.24922  1.0000
  H   H691      1.0  0.19457  0.17656  0.33185  1.0000
  O   O103      1.0  0.20375  0.17267  0.31013  1.0000
  H   H692      1.0  0.19157  0.18089  0.29338  1.0000
  H   H693      1.0  0.18813  0.17442  0.38224  1.0000
  O   O104      1.0  0.18521  0.18521  0.36262  1.0000
  H   H694      1.0  0.19340  0.20687  0.36496  1.0000
  H   H695      1.0  0.18043  0.21056  0.43191  1.0000
  O   O105      1.0  0.20842  0.18770  0.43241  1.0000
  H   H696      1.0  0.22765  0.19881  0.43148  1.0000
  H   H697      1.0  0.15661  0.19636  0.49376  1.0000
  O   O106      1.0  0.17580  0.18536  0.49499  1.0000
  H   H698      1.0  0.19122  0.20148  0.49131  1.0000
  H   H699      1.0  0.18860  0.21577  0.55754  1.0000
  O   O107      1.0  0.21314  0.19752  0.55506  1.0000
  H   H700      1.0  0.22971  0.20156  0.56946  1.0000
  H   H701      1.0  0.18012  0.18181  0.59812  1.0000
  O   O108      1.0  0.18518  0.18528  0.61990  1.0000
  H   H702      1.0  0.19525  0.20574  0.62111  1.0000
  H   H703      1.0  0.19727  0.20601  0.68163  1.0000
  O   O109      1.0  0.21776  0.19510  0.68017  1.0000
  H   H704      1.0  0.23071  0.20364  0.69639  1.0000
  H   H705      1.0  0.19451  0.17936  0.78356  1.0000
  O   O110      1.0  0.21516  0.18039  0.76501  1.0000
  H   H706      1.0  0.21269  0.20264  0.75639  1.0000
  H   H707      1.0  0.18341  0.18879  0.82959  1.0000
  O   O111      1.0  0.17699  0.18215  0.80360  1.0000
  H   H708      1.0  0.15811  0.17135  0.80109  1.0000
  H   H709      1.0  0.18146  0.21407  0.86651  1.0000
  O   O112      1.0  0.18991  0.19506  0.85514  1.0000
  H   H710      1.0  0.20973  0.18721  0.86506  1.0000
  H   H711      1.0  0.17188  0.25477  0.13378  1.0000
  O   O113      1.0  0.18753  0.26201  0.11746  1.0000
  H   H712      1.0  0.18611  0.28551  0.11345  1.0000
  H   H713      1.0  0.19549  0.25969  0.19128  1.0000
  O   O114      1.0  0.20817  0.24218  0.18521  1.0000
  H   H714      1.0  0.22959  0.24818  0.18637  1.0000
  H   H715      1.0  0.20500  0.25305  0.38103  1.0000
  O   O115      1.0  0.20846  0.23725  0.36506  1.0000
  H   H716      1.0  0.22137  0.24565  0.34869  1.0000
  H   H717      1.0  0.20456  0.25214  0.46904  1.0000
  O   O116      1.0  0.20640  0.23999  0.48817  1.0000
  H   H718      1.0  0.22441  0.24760  0.49879  1.0000
  H   H719      1.0  0.20945  0.25544  0.60618  1.0000
  O   O117      1.0  0.21069  0.23976  0.62257  1.0000
  H   H720      1.0  0.21636  0.25018  0.64182  1.0000
  H   H721      1.0  0.20218  0.24426  0.77558  1.0000
  O   O118      1.0  0.20824  0.23470  0.75518  1.0000
  H   H722      1.0  0.20936  0.25029  0.73879  1.0000
  H   H723      1.0  0.17649  0.25516  0.81867  1.0000
  O   O119      1.0  0.19673  0.25918  0.81000  1.0000
  H   H724      1.0  0.20039  0.28405  0.80569  1.0000
  H   H725      1.0  0.15413  0.25010  0.86354  1.0000
  O   O120      1.0  0.16898  0.24218  0.87985  1.0000
  H   H726      1.0  0.18074  0.25998  0.88654  1.0000
  H   H727      1.0  0.16777  0.31841  0.13304  1.0000
  O   O121      1.0  0.18519  0.31862  0.11742  1.0000
  H   H728      1.0  0.18355  0.33933  0.10650  1.0000
  H   H729      1.0  0.19770  0.33731  0.18573  1.0000
  O   O122      1.0  0.19882  0.31470  0.18604  1.0000
  H   H730      1.0  0.21979  0.30946  0.19028  1.0000
  H   H731      1.0  0.20030  0.33366  0.80710  1.0000
  O   O123      1.0  0.20606  0.31135  0.79748  1.0000
  H   H732      1.0  0.22328  0.31263  0.78359  1.0000
  H   H733      1.0  0.17257  0.31023  0.85297  1.0000
  O   O124      1.0  0.18748  0.30879  0.87001  1.0000
  H   H734      1.0  0.18873  0.32956  0.87870  1.0000
  H   H735      1.0  0.16593  0.37635  0.07872  1.0000
  O   O125      1.0  0.17814  0.37283  0.09709  1.0000
  H   H736      1.0  0.18030  0.39333  0.10869  1.0000
  H   H737      1.0  0.16472  0.37427  0.18249  1.0000
  O   O126      1.0  0.18507  0.37551  0.19244  1.0000
  H   H738      1.0  0.19489  0.39697  0.18881  1.0000
  H   H739      1.0  0.18434  0.36555  0.22262  1.0000
  O   O127      1.0  0.18284  0.35548  0.24517  1.0000
  H   H740      1.0  0.20315  0.35198  0.25334  1.0000
  H   H741      1.0  0.20295  0.38344  0.75604  1.0000
  O   O128      1.0  0.20129  0.36544  0.74252  1.0000
  H   H742      1.0  0.22154  0.36199  0.73404  1.0000
  H   H743      1.0  0.18599  0.36585  0.84034  1.0000
  O   O129      1.0  0.19210  0.36081  0.81786  1.0000
  H   H744      1.0  0.20034  0.37999  0.80884  1.0000
  H   H745      1.0  0.15815  0.37450  0.88135  1.0000
  O   O130      1.0  0.17810  0.37759  0.87256  1.0000
  H   H746      1.0  0.18268  0.40117  0.87302  1.0000
  H   H747      1.0  0.16403  0.42527  0.14147  1.0000
  O   O131      1.0  0.18050  0.42266  0.12487  1.0000
  H   H748      1.0  0.18507  0.44276  0.11623  1.0000
  H   H749      1.0  0.19966  0.44893  0.18685  1.0000
  O   O132      1.0  0.20849  0.42710  0.18765  1.0000
  H   H750      1.0  0.22968  0.42850  0.19367  1.0000
  H   H751      1.0  0.20345  0.43869  0.79912  1.0000
  O   O133      1.0  0.21071  0.41736  0.79738  1.0000
  H   H752      1.0  0.23275  0.41874  0.79620  1.0000
  H   H753      1.0  0.16729  0.43442  0.84907  1.0000
  O   O134      1.0  0.18518  0.43233  0.86501  1.0000
  H   H754      1.0  0.18684  0.45198  0.87610  1.0000
  H   H755      1.0  0.17748  0.50246  0.08872  1.0000
  O   O135      1.0  0.18980  0.50120  0.10732  1.0000
  H   H756      1.0  0.19034  0.52289  0.11851  1.0000
  H   H757      1.0  0.16483  0.48608  0.17710  1.0000
  O   O136      1.0  0.19003  0.48157  0.18746  1.0000
  H   H758      1.0  0.20622  0.49255  0.17670  1.0000
  H   H759      1.0  0.18671  0.48989  0.21670  1.0000
  O   O137      1.0  0.17819  0.49649  0.23999  1.0000
  H   H760      1.0  0.18583  0.51668  0.24610  1.0000
  H   H761      1.0  0.19172  0.49210  0.76064  1.0000
  O   O138      1.0  0.19005  0.49635  0.73746  1.0000
  H   H762      1.0  0.21048  0.49763  0.72917  1.0000
  H   H763      1.0  0.18331  0.49240  0.80880  1.0000
  O   O139      1.0  0.19906  0.48396  0.79512  1.0000
  H   H764      1.0  0.21894  0.49309  0.80114  1.0000
  H   H765      1.0  0.16096  0.49978  0.86852  1.0000
  O   O140      1.0  0.18172  0.49741  0.87565  1.0000
  H   H766      1.0  0.18997  0.51858  0.87599  1.0000
  H   H767      1.0  0.19542  0.55065  0.15619  1.0000
  O   O141      1.0  0.19446  0.55071  0.13259  1.0000
  H   H768      1.0  0.18069  0.56974  0.12670  1.0000
  H   H769      1.0  0.20053  0.58378  0.18640  1.0000
  O   O142      1.0  0.19758  0.55933  0.19084  1.0000
  H   H770      1.0  0.21540  0.55220  0.20201  1.0000
  H   H771      1.0  0.20411  0.57676  0.80179  1.0000
  O   O143      1.0  0.20802  0.55400  0.79644  1.0000
  H   H772      1.0  0.21831  0.55378  0.77636  1.0000
  H   H773      1.0  0.19779  0.55662  0.84232  1.0000
  O   O144      1.0  0.20134  0.55818  0.86491  1.0000
  H   H774      1.0  0.19354  0.57898  0.87163  1.0000
  H   H775      1.0  0.15043  0.60722  0.14072  1.0000
  O   O145      1.0  0.16193  0.59510  0.12265  1.0000
  H   H776      1.0  0.16544  0.60887  0.10532  1.0000
  H   H777      1.0  0.18663  0.62545  0.17393  1.0000
  O   O146      1.0  0.20364  0.61253  0.17995  1.0000
  H   H778      1.0  0.22414  0.62352  0.17928  1.0000
  H   H779      1.0  0.19056  0.64858  0.22860  1.0000
  O   O147      1.0  0.18290  0.63456  0.24477  1.0000
  H   H780      1.0  0.19902  0.62058  0.25155  1.0000
  H   H781      1.0  0.20574  0.65578  0.76694  1.0000
  O   O148      1.0  0.19444  0.64440  0.74992  1.0000
  H   H782      1.0  0.20447  0.62527  0.74383  1.0000
  H   H783      1.0  0.18397  0.61817  0.82098  1.0000
  O   O149      1.0  0.20139  0.60752  0.81255  1.0000
  H   H784      1.0  0.22113  0.61921  0.81346  1.0000
  H   H785      1.0  0.16514  0.61385  0.89832  1.0000
  O   O150      1.0  0.18283  0.61481  0.88499  1.0000
  H   H786      1.0  0.18371  0.63645  0.87639  1.0000
  H   H787      1.0  0.17975  0.67746  0.14668  1.0000
  O   O151      1.0  0.18303  0.68391  0.12506  1.0000
  H   H788      1.0  0.17218  0.70519  0.12191  1.0000
  H   H789      1.0  0.18820  0.70087  0.18925  1.0000
  O   O152      1.0  0.19452  0.67904  0.19010  1.0000
  H   H790      1.0  0.21656  0.68040  0.19119  1.0000
  H   H791      1.0  0.19745  0.69018  0.80117  1.0000
  O   O153      1.0  0.21311  0.67690  0.79265  1.0000
  H   H792      1.0  0.23260  0.68756  0.79356  1.0000
  H   H793      1.0  0.16522  0.67338  0.84612  1.0000
  O   O154      1.0  0.18283  0.67154  0.86247  1.0000
  H   H794      1.0  0.18214  0.68990  0.87559  1.0000
  H   H795      1.0  0.14362  0.73451  0.14117  1.0000
  O   O155      1.0  0.15733  0.73351  0.12267  1.0000
  H   H796      1.0  0.16767  0.75388  0.12102  1.0000
  H   H797      1.0  0.18699  0.76136  0.17895  1.0000
  O   O156      1.0  0.19451  0.74094  0.18507  1.0000
  H   H798      1.0  0.21654  0.74146  0.18376  1.0000
  H   H799      1.0  0.18280  0.78119  0.37340  1.0000
  O   O157      1.0  0.18057  0.75791  0.36756  1.0000
  H   H800      1.0  0.19538  0.74410  0.37668  1.0000
  H   H801      1.0  0.18559  0.77703  0.50595  1.0000
  O   O158      1.0  0.18283  0.75546  0.49515  1.0000
  H   H802      1.0  0.19830  0.74140  0.50340  1.0000
  H   H803      1.0  0.20301  0.75936  0.61344  1.0000
  O   O159      1.0  0.19221  0.74562  0.62742  1.0000
  H   H804      1.0  0.20681  0.72978  0.63382  1.0000
  H   H805      1.0  0.19386  0.78445  0.74559  1.0000
  O   O160      1.0  0.18293  0.76515  0.73735  1.0000
  H   H806      1.0  0.19749  0.74843  0.73627  1.0000
  H   H807      1.0  0.17924  0.77264  0.81729  1.0000
  O   O161      1.0  0.18515  0.75060  0.82264  1.0000
  H   H808      1.0  0.20641  0.74720  0.81380  1.0000
  H   H809      1.0  0.18735  0.74171  0.85528  1.0000
  O   O162      1.0  0.19206  0.73689  0.87848  1.0000
  H   H810      1.0  0.19166  0.75882  0.88813  1.0000
  H   H811      1.0  0.16711  0.80386  0.11132  1.0000
  O   O163      1.0  0.17823  0.79033  0.12514  1.0000
  H   H812      1.0  0.17550  0.79769  0.14745  1.0000
  H   H813      1.0  0.15169  0.79621  0.19120  1.0000
  O   O164      1.0  0.17120  0.80242  0.18276  1.0000
  H   H814      1.0  0.18368  0.81000  0.20164  1.0000
  H   H815      1.0  0.19998  0.79930  0.24606  1.0000
  O   O165      1.0  0.20371  0.81477  0.23015  1.0000
  H   H816      1.0  0.22393  0.80863  0.21648  1.0000
  H   H817      1.0  0.21669  0.82915  0.31862  1.0000
  O   O166      1.0  0.19907  0.81216  0.32267  1.0000
  H   H818      1.0  0.20375  0.79189  0.31448  1.0000
  H   H819      1.0  0.16322  0.82134  0.37595  1.0000
  O   O167      1.0  0.18338  0.81259  0.37550  1.0000
  H   H820      1.0  0.19144  0.81350  0.35019  1.0000
  H   H821      1.0  0.18808  0.80873  0.41208  1.0000
  O   O168      1.0  0.18533  0.80484  0.43502  1.0000
  H   H822      1.0  0.20189  0.79165  0.44170  1.0000
  H   H823      1.0  0.17344  0.81871  0.51369  1.0000
  O   O169      1.0  0.18974  0.80510  0.51994  1.0000
  H   H824      1.0  0.21204  0.81241  0.50853  1.0000
  H   H825      1.0  0.19859  0.80436  0.55352  1.0000
  O   O170      1.0  0.20850  0.80489  0.57512  1.0000
  H   H826      1.0  0.22801  0.79410  0.57359  1.0000
  H   H827      1.0  0.16426  0.80849  0.62820  1.0000
  O   O171      1.0  0.18523  0.81485  0.62722  1.0000
  H   H828      1.0  0.19433  0.81081  0.60531  1.0000
  H   H829      1.0  0.20170  0.81381  0.65567  1.0000
  O   O172      1.0  0.21539  0.81464  0.67516  1.0000
  H   H830      1.0  0.21312  0.79684  0.68859  1.0000
  H   H831      1.0  0.21126  0.83211  0.75128  1.0000
  O   O173      1.0  0.20818  0.81044  0.75993  1.0000
  H   H832      1.0  0.22783  0.80592  0.77144  1.0000
  H   H833      1.0  0.14951  0.80325  0.79634  1.0000
  O   O174      1.0  0.17021  0.80286  0.80396  1.0000
  H   H834      1.0  0.18439  0.80832  0.78605  1.0000
  H   H835      1.0  0.18162  0.80627  0.89398  1.0000
  O   O175      1.0  0.19692  0.79052  0.89260  1.0000
  H   H836      1.0  0.21764  0.79992  0.88639  1.0000
  H   H837      1.0  0.20189  0.15695  0.18473  1.0000
  O   O176      1.0  0.21522  0.13829  0.18478  1.0000
  H   H838      1.0  0.21050  0.12661  0.16610  1.0000
  H   H839      1.0  0.23001  0.15443  0.24418  1.0000
  O   O177      1.0  0.24067  0.13322  0.24227  1.0000
  H   H840      1.0  0.23218  0.12487  0.22287  1.0000
  H   H841      1.0  0.22548  0.14971  0.30742  1.0000
  O   O178      1.0  0.24060  0.13091  0.30729  1.0000
  H   H842      1.0  0.23979  0.12203  0.28639  1.0000
  H   H843      1.0  0.22506  0.10995  0.37365  1.0000
  O   O179      1.0  0.24058  0.12093  0.36249  1.0000
  H   H844      1.0  0.23901  0.11962  0.33840  1.0000
  H   H845      1.0  0.21371  0.16701  0.44082  1.0000
  O   O180      1.0  0.23611  0.13336  0.44493  1.0000
  H   H846      1.0  0.26238  0.13185  0.43657  1.0000
  H   H847      1.0  0.22100  0.11712  0.48575  1.0000
  O   O181      1.0  0.24008  0.12812  0.48113  1.0000
  H   H848      1.0  0.23780  0.16005  0.49635  1.0000
  H   H849      1.0  0.21267  0.14737  0.55565  1.0000
  O   O182      1.0  0.22459  0.12847  0.55504  1.0000
  H   H850      1.0  0.24536  0.13491  0.55117  1.0000
  H   H851      1.0  0.22971  0.11660  0.61397  1.0000
  O   O183      1.0  0.24539  0.11858  0.62978  1.0000
  H   H852      1.0  0.23663  0.12706  0.65263  1.0000
  H   H853      1.0  0.22085  0.16143  0.67805  1.0000
  O   O184      1.0  0.22686  0.13852  0.67771  1.0000
  H   H854      1.0  0.23087  0.13129  0.69922  1.0000
  H   H855      1.0  0.22729  0.15289  0.74683  1.0000
  O   O185      1.0  0.23840  0.13333  0.74011  1.0000
  H   H856      1.0  0.23696  0.11999  0.75862  1.0000
  H   H857      1.0  0.22593  0.11880  0.82112  1.0000
  O   O186      1.0  0.24070  0.12354  0.80510  1.0000
  H   H858      1.0  0.24681  0.14537  0.80821  1.0000
  H   H859      1.0  0.23924  0.18674  0.11613  1.0000
  O   O187      1.0  0.25682  0.19756  0.12500  1.0000
  H   H860      1.0  0.24872  0.22563  0.12471  1.0000
  H   H861      1.0  0.24679  0.16209  0.18240  1.0000
  O   O188      1.0  0.25939  0.18012  0.17752  1.0000
  H   H862      1.0  0.25832  0.18950  0.14965  1.0000
  H   H863      1.0  0.25047  0.15150  0.36474  1.0000
  O   O189      1.0  0.26334  0.17145  0.36306  1.0000
  H   H864      1.0  0.25266  0.18993  0.36896  1.0000
  H   H865      1.0  0.22251  0.19085  0.53364  1.0000
  O   O190      1.0  0.23865  0.18043  0.50747  1.0000
  H   H866      1.0  0.25673  0.19145  0.50116  1.0000
  H   H867      1.0  0.24800  0.19148  0.64596  1.0000
  O   O191      1.0  0.26611  0.19266  0.63260  1.0000
  H   H868      1.0  0.26991  0.21434  0.62861  1.0000
  H   H869      1.0  0.23443  0.18149  0.78150  1.0000
  O   O192      1.0  0.25464  0.18273  0.80253  1.0000
  H   H870      1.0  0.25009  0.20188  0.81491  1.0000
  H   H871      1.0  0.24920  0.20315  0.88358  1.0000
  O   O193      1.0  0.23851  0.18261  0.88004  1.0000
  H   H872      1.0  0.25328  0.16629  0.87851  1.0000
  H   H873      1.0  0.21262  0.25491  0.12125  1.0000
  O   O194      1.0  0.23861  0.24911  0.12488  1.0000
  H   H874      1.0  0.25103  0.26618  0.13154  1.0000
  H   H875      1.0  0.22072  0.24502  0.82089  1.0000
  O   O195      1.0  0.24339  0.23557  0.82607  1.0000
  H   H876      1.0  0.25705  0.24848  0.81362  1.0000
  H   H877      1.0  0.25327  0.23661  0.85665  1.0000
  O   O196      1.0  0.26154  0.23460  0.87989  1.0000
  H   H878      1.0  0.25339  0.25097  0.89280  1.0000
  H   H879      1.0  0.22082  0.31768  0.12709  1.0000
  O   O197      1.0  0.24301  0.31854  0.13245  1.0000
  H   H880      1.0  0.24640  0.33445  0.14851  1.0000
  H   H881      1.0  0.23077  0.30505  0.86613  1.0000
  O   O198      1.0  0.25135  0.31219  0.87044  1.0000
  H   H882      1.0  0.25130  0.33535  0.87424  1.0000
  H   H883      1.0  0.25299  0.37193  0.08871  1.0000
  O   O199      1.0  0.26848  0.38507  0.09743  1.0000
  H   H884      1.0  0.25965  0.40639  0.10788  1.0000
  H   H885      1.0  0.26052  0.37867  0.18384  1.0000
  O   O200      1.0  0.25950  0.35697  0.17797  1.0000
  H   H886      1.0  0.26470  0.34471  0.19627  1.0000
  H   H887      1.0  0.27266  0.38205  0.80114  1.0000
  O   O201      1.0  0.25944  0.36778  0.81246  1.0000
  H   H888      1.0  0.26477  0.34688  0.80594  1.0000
  H   H889      1.0  0.25105  0.38654  0.88302  1.0000
  O   O202      1.0  0.25694  0.36793  0.87213  1.0000
  H   H890      1.0  0.25758  0.37141  0.84887  1.0000
  H   H891      1.0  0.23275  0.42365  0.13586  1.0000
  O   O203      1.0  0.24975  0.42946  0.12261  1.0000
  H   H892      1.0  0.24677  0.45319  0.11539  1.0000
  H   H893      1.0  0.22923  0.42921  0.86144  1.0000
  O   O204      1.0  0.24993  0.43471  0.86751  1.0000
  H   H894      1.0  0.25138  0.45791  0.86906  1.0000
  H   H895      1.0  0.22034  0.48982  0.10662  1.0000
  O   O205      1.0  0.24235  0.48250  0.11106  1.0000
  H   H896      1.0  0.24879  0.49258  0.13088  1.0000
  H   H897      1.0  0.26213  0.52037  0.17692  1.0000
  O   O206      1.0  0.25468  0.50114  0.16766  1.0000
  H   H898      1.0  0.26483  0.48424  0.17859  1.0000
  H   H899      1.0  0.26389  0.52149  0.79922  1.0000
  O   O207      1.0  0.25697  0.50139  0.80734  1.0000
  H   H900      1.0  0.26858  0.48510  0.79662  1.0000
  H   H901      1.0  0.24876  0.50734  0.87860  1.0000
  O   O208      1.0  0.25887  0.49184  0.86612  1.0000
  H   H902      1.0  0.25792  0.49777  0.84341  1.0000
  H   H903      1.0  0.22884  0.55824  0.12564  1.0000
  O   O209      1.0  0.24993  0.56647  0.12206  1.0000
  H   H904      1.0  0.24866  0.58865  0.11596  1.0000
  H   H905      1.0  0.23698  0.56501  0.86590  1.0000
  O   O210      1.0  0.25706  0.57534  0.86764  1.0000
  H   H906      1.0  0.25641  0.59965  0.87813  1.0000
  H   H907      1.0  0.24222  0.63308  0.08829  1.0000
  O   O211      1.0  0.24762  0.62251  0.10750  1.0000
  H   H908      1.0  0.24666  0.63799  0.12411  1.0000
  H   H909      1.0  0.26282  0.65487  0.18632  1.0000
  O   O212      1.0  0.25470  0.63478  0.17999  1.0000
  H   H910      1.0  0.26844  0.61814  0.18636  1.0000
  H   H911      1.0  0.26525  0.64571  0.80390  1.0000
  O   O213      1.0  0.25465  0.62703  0.80998  1.0000
  H   H912      1.0  0.26761  0.60927  0.80567  1.0000
  H   H913      1.0  0.24751  0.62417  0.91058  1.0000
  O   O214      1.0  0.25690  0.62462  0.89019  1.0000
  H   H914      1.0  0.25033  0.64634  0.87656  1.0000
  H   H915      1.0  0.21411  0.68491  0.12076  1.0000
  O   O215      1.0  0.23820  0.68667  0.12006  1.0000
  H   H916      1.0  0.24435  0.71076  0.12092  1.0000
  H   H917      1.0  0.22135  0.66740  0.85616  1.0000
  O   O216      1.0  0.24290  0.66929  0.86255  1.0000
  H   H918      1.0  0.24478  0.69333  0.87158  1.0000
  H   H919      1.0  0.25042  0.76106  0.12423  1.0000
  O   O217      1.0  0.25709  0.73814  0.12237  1.0000
  H   H920      1.0  0.27920  0.73700  0.11829  1.0000
  H   H921      1.0  0.24330  0.77143  0.80095  1.0000
  O   O218      1.0  0.23678  0.74924  0.80209  1.0000
  H   H922      1.0  0.25433  0.73638  0.80602  1.0000
  H   H923      1.0  0.21889  0.72930  0.87901  1.0000
  O   O219      1.0  0.24309  0.72106  0.87760  1.0000
  H   H924      1.0  0.25828  0.73419  0.88651  1.0000
  H   H925      1.0  0.22705  0.80102  0.12352  1.0000
  O   O220      1.0  0.24651  0.79174  0.12804  1.0000
  H   H926      1.0  0.26548  0.80547  0.12553  1.0000
  H   H927      1.0  0.24640  0.82752  0.18365  1.0000
  O   O221      1.0  0.24549  0.80718  0.19731  1.0000
  H   H928      1.0  0.25251  0.78924  0.18613  1.0000
  H   H929      1.0  0.26184  0.83373  0.33861  1.0000
  O   O222      1.0  0.27583  0.82872  0.35669  1.0000
  H   H930      1.0  0.27563  0.80681  0.36114  1.0000
  H   H931      1.0  0.24557  0.84200  0.49930  1.0000
  O   O223      1.0  0.23614  0.81964  0.49733  1.0000
  H   H932      1.0  0.24866  0.80481  0.48621  1.0000
  H   H933      1.0  0.25316  0.82612  0.64094  1.0000
  O   O224      1.0  0.27324  0.81721  0.63777  1.0000
  H   H934      1.0  0.27568  0.80094  0.65345  1.0000
  H   H935      1.0  0.24852  0.82377  0.80949  1.0000
  O   O225      1.0  0.25244  0.80495  0.79502  1.0000
  H   H936      1.0  0.27427  0.80407  0.79119  1.0000
  H   H937      1.0  0.24649  0.82847  0.85944  1.0000
  O   O226      1.0  0.24597  0.81345  0.87682  1.0000
  H   H938      1.0  0.26714  0.80650  0.88102  1.0000
  H   H939      1.0  0.23239  0.86528  0.15829  1.0000
  O   O227      1.0  0.24769  0.85453  0.16996  1.0000
  H   H940      1.0  0.26732  0.86728  0.17377  1.0000
  H   H941      1.0  0.21857  0.84291  0.24855  1.0000
  O   O228      1.0  0.23139  0.85907  0.25991  1.0000
  H   H942      1.0  0.24742  0.86562  0.24597  1.0000
  H   H943      1.0  0.23431  0.86723  0.33224  1.0000
  O   O229      1.0  0.23697  0.84997  0.31646  1.0000
  H   H944      1.0  0.23693  0.85581  0.29284  1.0000
  H   H945      1.0  0.22543  0.90478  0.36597  1.0000
  O   O230      1.0  0.23369  0.88443  0.36270  1.0000
  H   H946      1.0  0.23691  0.87424  0.38354  1.0000
  H   H947      1.0  0.22112  0.85287  0.42632  1.0000
  O   O231      1.0  0.24060  0.85907  0.41751  1.0000
  H   H948      1.0  0.25258  0.83988  0.41618  1.0000
  H   H949      1.0  0.24603  0.88577  0.49172  1.0000
  O   O232      1.0  0.25569  0.87027  0.50456  1.0000
  H   H950      1.0  0.28115  0.87260  0.50408  1.0000
  H   H951      1.0  0.24888  0.86914  0.54175  1.0000
  O   O233      1.0  0.24994  0.86410  0.56484  1.0000
  H   H952      1.0  0.23768  0.84561  0.56842  1.0000
  H   H953      1.0  0.21034  0.86544  0.62652  1.0000
  O   O234      1.0  0.23133  0.87157  0.62979  1.0000
  H   H954      1.0  0.23948  0.87771  0.60943  1.0000
  H   H955      1.0  0.24211  0.87225  0.67111  1.0000
  O   O235      1.0  0.24520  0.85927  0.68970  1.0000
  H   H956      1.0  0.23297  0.83883  0.68468  1.0000
  H   H957      1.0  0.23505  0.87567  0.75674  1.0000
  O   O236      1.0  0.22221  0.86423  0.74263  1.0000
  H   H958      1.0  0.23105  0.86543  0.72081  1.0000
  H   H959      1.0  0.23075  0.86529  0.82623  1.0000
  O   O237      1.0  0.24797  0.85164  0.82734  1.0000
  H   H960      1.0  0.26918  0.86251  0.82051  1.0000
  H   H961      1.0  0.32836  0.13740  0.15414  1.0000
  O   O238      1.0  0.33371  0.13765  0.17610  1.0000
  H   H962      1.0  0.32399  0.15715  0.18623  1.0000
  H   H963      1.0  0.27056  0.12857  0.24713  1.0000
  O   O239      1.0  0.29403  0.12588  0.25235  1.0000
  H   H964      1.0  0.30448  0.11464  0.23601  1.0000
  H   H965      1.0  0.27879  0.13727  0.31632  1.0000
  O   O240      1.0  0.30096  0.13565  0.32000  1.0000
  H   H966      1.0  0.30916  0.12709  0.30082  1.0000
  H   H967      1.0  0.28977  0.16137  0.37387  1.0000
  O   O241      1.0  0.30781  0.14580  0.37983  1.0000
  H   H968      1.0  0.30937  0.13437  0.35969  1.0000
  H   H969      1.0  0.29810  0.13506  0.40417  1.0000
  O   O242      1.0  0.28779  0.13014  0.42830  1.0000
  H   H970      1.0  0.30172  0.12454  0.44475  1.0000
  H   H971      1.0  0.30935  0.10007  0.50111  1.0000
  O   O243      1.0  0.32387  0.11621  0.50536  1.0000
  H   H972      1.0  0.31721  0.12736  0.52581  1.0000
  H   H973      1.0  0.29863  0.14185  0.58696  1.0000
  O   O244      1.0  0.31253  0.14068  0.55753  1.0000
  H   H974      1.0  0.34007  0.14226  0.56158  1.0000
  H   H975      1.0  0.28358  0.16474  0.61667  1.0000
  O   O245      1.0  0.28918  0.14330  0.61003  1.0000
  H   H976      1.0  0.26814  0.12905  0.61891  1.0000
  H   H977      1.0  0.30467  0.12742  0.67105  1.0000
  O   O246      1.0  0.31943  0.13086  0.68737  1.0000
  H   H978      1.0  0.30922  0.13492  0.70941  1.0000
  H   H979      1.0  0.27338  0.13753  0.73825  1.0000
  O   O247      1.0  0.29607  0.14061  0.73750  1.0000
  H   H980      1.0  0.30199  0.15639  0.75306  1.0000
  H   H981      1.0  0.31636  0.11676  0.82108  1.0000
  O   O248      1.0  0.33303  0.12826  0.82989  1.0000
  H   H982      1.0  0.32589  0.14936  0.83923  1.0000
  H   H983      1.0  0.29788  0.18937  0.11886  1.0000
  O   O249      1.0  0.31933  0.19018  0.12506  1.0000
  H   H984      1.0  0.32046  0.20651  0.14095  1.0000
  H   H985      1.0  0.28070  0.18084  0.18868  1.0000
  O   O250      1.0  0.31021  0.18301  0.19953  1.0000
  H   H986      1.0  0.31804  0.20370  0.19062  1.0000
  H   H987      1.0  0.30601  0.15465  0.25643  1.0000
  O   O251      1.0  0.31479  0.17766  0.25524  1.0000
  H   H988      1.0  0.31272  0.18268  0.22399  1.0000
  H   H989      1.0  0.27644  0.18407  0.79155  1.0000
  O   O252      1.0  0.30328  0.18531  0.77740  1.0000
  H   H990      1.0  0.31505  0.20375  0.78623  1.0000
  H   H991      1.0  0.34278  0.18153  0.86353  1.0000
  O   O253      1.0  0.32202  0.17800  0.85250  1.0000
  H   H992      1.0  0.31838  0.19565  0.83902  1.0000
  H   H993      1.0  0.31040  0.25063  0.08624  1.0000
  O   O254      1.0  0.32344  0.26459  0.09749  1.0000
  H   H994      1.0  0.30961  0.28554  0.10892  1.0000
  H   H995      1.0  0.31106  0.24875  0.18129  1.0000
  O   O255      1.0  0.32440  0.23203  0.17474  1.0000
  H   H996      1.0  0.34549  0.24018  0.16922  1.0000
  H   H997      1.0  0.31838  0.24706  0.80854  1.0000
  O   O256      1.0  0.33107  0.22974  0.80234  1.0000
  H   H998      1.0  0.34704  0.23850  0.78780  1.0000
  H   H999      1.0  0.29975  0.23820  0.88163  1.0000
  O   O257      1.0  0.31924  0.24941  0.87998  1.0000
  H   H1000     1.0  0.31439  0.27280  0.87564  1.0000
  H   H1001     1.0  0.27321  0.30765  0.12317  1.0000
  O   O258      1.0  0.29624  0.30611  0.11988  1.0000
  H   H1002     1.0  0.30408  0.32885  0.12094  1.0000
  H   H1003     1.0  0.28168  0.30453  0.86841  1.0000
  O   O259      1.0  0.30534  0.30138  0.86743  1.0000
  H   H1004     1.0  0.31285  0.30747  0.84701  1.0000
  H   H1005     1.0  0.29017  0.37208  0.11022  1.0000
  O   O260      1.0  0.30781  0.36051  0.12532  1.0000
  H   H1006     1.0  0.29990  0.36369  0.14632  1.0000
  H   H1007     1.0  0.31930  0.35818  0.87597  1.0000
  O   O261      1.0  0.33096  0.37515  0.86763  1.0000
  H   H1008     1.0  0.31888  0.39574  0.86795  1.0000
  H   H1009     1.0  0.30666  0.43287  0.13160  1.0000
  O   O262      1.0  0.32416  0.44453  0.12497  1.0000
  H   H1010     1.0  0.31801  0.46664  0.11904  1.0000
  H   H1011     1.0  0.28209  0.42631  0.86635  1.0000
  O   O263      1.0  0.30536  0.42471  0.86484  1.0000
  H   H1012     1.0  0.31103  0.43335  0.84469  1.0000
  H   H1013     1.0  0.29289  0.49251  0.09333  1.0000
  O   O264      1.0  0.30993  0.49624  0.10719  1.0000
  H   H1014     1.0  0.30645  0.51799  0.11678  1.0000
  H   H1015     1.0  0.30853  0.49075  0.87120  1.0000
  O   O265      1.0  0.32403  0.50610  0.86753  1.0000
  H   H1016     1.0  0.31510  0.53418  0.86581  1.0000
  H   H1017     1.0  0.27727  0.55563  0.12375  1.0000
  O   O266      1.0  0.30075  0.54822  0.12787  1.0000
  H   H1018     1.0  0.30284  0.54951  0.15055  1.0000
  H   H1019     1.0  0.27930  0.56510  0.86568  1.0000
  O   O267      1.0  0.30786  0.55798  0.86243  1.0000
  H   H1020     1.0  0.31409  0.56433  0.84164  1.0000
  H   H1021     1.0  0.30494  0.61050  0.11115  1.0000
  O   O268      1.0  0.31944  0.62469  0.11995  1.0000
  H   H1022     1.0  0.30897  0.64608  0.12161  1.0000
  H   H1023     1.0  0.31159  0.61642  0.87394  1.0000
  O   O269      1.0  0.32587  0.63215  0.86765  1.0000
  H   H1024     1.0  0.31578  0.65574  0.86654  1.0000
  H   H1025     1.0  0.27157  0.67706  0.12366  1.0000
  O   O270      1.0  0.29413  0.67430  0.12494  1.0000
  H   H1026     1.0  0.30382  0.69488  0.12208  1.0000
  H   H1027     1.0  0.28207  0.67976  0.85849  1.0000
  O   O271      1.0  0.30324  0.68133  0.86498  1.0000
  H   H1028     1.0  0.31099  0.70364  0.86934  1.0000
  H   H1029     1.0  0.31870  0.73726  0.14238  1.0000
  O   O272      1.0  0.31502  0.73079  0.11998  1.0000
  H   H1030     1.0  0.33505  0.73234  0.10971  1.0000
  H   H1031     1.0  0.31461  0.73573  0.18978  1.0000
  O   O273      1.0  0.32641  0.74818  0.17512  1.0000
  H   H1032     1.0  0.32046  0.77316  0.17610  1.0000
  H   H1033     1.0  0.31202  0.77694  0.81631  1.0000
  O   O274      1.0  0.31942  0.75552  0.81991  1.0000
  H   H1034     1.0  0.32011  0.74326  0.80100  1.0000
  H   H1035     1.0  0.31168  0.74952  0.88445  1.0000
  O   O275      1.0  0.32172  0.73350  0.87233  1.0000
  H   H1036     1.0  0.32192  0.74218  0.84959  1.0000
  H   H1037     1.0  0.30556  0.81185  0.14645  1.0000
  O   O276      1.0  0.29625  0.81724  0.12493  1.0000
  H   H1038     1.0  0.30891  0.80872  0.10863  1.0000
  H   H1039     1.0  0.31407  0.81159  0.19760  1.0000
  O   O277      1.0  0.31960  0.80228  0.17490  1.0000
  H   H1040     1.0  0.34251  0.80669  0.17163  1.0000
  H   H1041     1.0  0.29947  0.81240  0.24101  1.0000
  O   O278      1.0  0.31238  0.82249  0.22545  1.0000
  H   H1042     1.0  0.31554  0.84554  0.22906  1.0000
  H   H1043     1.0  0.30329  0.83417  0.81598  1.0000
  O   O279      1.0  0.31034  0.81239  0.81752  1.0000
  H   H1044     1.0  0.33277  0.81335  0.81040  1.0000
  H   H1045     1.0  0.30636  0.80327  0.85383  1.0000
  O   O280      1.0  0.30341  0.79792  0.87656  1.0000
  H   H1046     1.0  0.32240  0.80359  0.88681  1.0000
  H   H1047     1.0  0.30453  0.88281  0.20137  1.0000
  O   O281      1.0  0.29437  0.88154  0.18004  1.0000
  H   H1048     1.0  0.30996  0.87796  0.16440  1.0000
  H   H1049     1.0  0.31423  0.88329  0.25403  1.0000
  O   O282      1.0  0.32180  0.87899  0.23259  1.0000
  H   H1050     1.0  0.34552  0.88057  0.23373  1.0000
  H   H1051     1.0  0.31156  0.87520  0.31537  1.0000
  O   O283      1.0  0.31259  0.87147  0.29253  1.0000
  H   H1052     1.0  0.32371  0.85228  0.29066  1.0000
  H   H1053     1.0  0.30945  0.88271  0.36880  1.0000
  O   O284      1.0  0.31694  0.86665  0.35507  1.0000
  H   H1054     1.0  0.30108  0.84876  0.35648  1.0000
  H   H1055     1.0  0.30808  0.87035  0.44112  1.0000
  O   O285      1.0  0.32159  0.85646  0.43008  1.0000
  H   H1056     1.0  0.31133  0.83622  0.42869  1.0000
  H   H1057     1.0  0.30982  0.86799  0.53321  1.0000
  O   O286      1.0  0.30817  0.87395  0.51022  1.0000
  H   H1058     1.0  0.32794  0.86861  0.49966  1.0000
  H   H1059     1.0  0.28368  0.86024  0.56840  1.0000
  O   O287      1.0  0.30642  0.85556  0.56546  1.0000
  H   H1060     1.0  0.30701  0.83287  0.56438  1.0000
  H   H1061     1.0  0.31222  0.86281  0.60904  1.0000
  O   O288      1.0  0.31309  0.85830  0.63138  1.0000
  H   H1062     1.0  0.29768  0.84137  0.63546  1.0000
  H   H1063     1.0  0.27593  0.86235  0.70120  1.0000
  O   O289      1.0  0.29743  0.86706  0.70900  1.0000
  H   H1064     1.0  0.31126  0.86782  0.69150  1.0000
  H   H1065     1.0  0.30809  0.87046  0.73907  1.0000
  O   O290      1.0  0.31809  0.87452  0.76086  1.0000
  H   H1066     1.0  0.33937  0.88271  0.75866  1.0000
  H   H1067     1.0  0.30648  0.87257  0.78556  1.0000
  O   O291      1.0  0.29653  0.86965  0.81096  1.0000
  H   H1068     1.0  0.30788  0.88233  0.82545  1.0000
  H   H1069     1.0  0.36287  0.12727  0.18462  1.0000
  O   O292      1.0  0.38416  0.12101  0.19269  1.0000
  H   H1070     1.0  0.40640  0.12674  0.17905  1.0000
  H   H1071     1.0  0.38358  0.11420  0.21568  1.0000
  O   O293      1.0  0.37962  0.10359  0.24751  1.0000
  H   H1072     1.0  0.37406  0.08243  0.25102  1.0000
  H   H1073     1.0  0.38151  0.11489  0.26871  1.0000
  O   O294      1.0  0.38443  0.13089  0.29758  1.0000
  H   H1074     1.0  0.37719  0.15161  0.29366  1.0000
  H   H1075     1.0  0.37182  0.12468  0.35435  1.0000
  O   O295      1.0  0.38190  0.13336  0.37250  1.0000
  H   H1076     1.0  0.40460  0.12773  0.37161  1.0000
  H   H1077     1.0  0.37192  0.13253  0.40699  1.0000
  O   O296      1.0  0.36561  0.13584  0.42966  1.0000
  H   H1078     1.0  0.34809  0.14924  0.42914  1.0000
  H   H1079     1.0  0.35543  0.11506  0.49422  1.0000
  O   O297      1.0  0.37628  0.11667  0.48385  1.0000
  H   H1080     1.0  0.37376  0.12309  0.46114  1.0000
  H   H1081     1.0  0.37802  0.13439  0.58939  1.0000
  O   O298      1.0  0.36575  0.14076  0.56481  1.0000
  H   H1082     1.0  0.37757  0.13920  0.54594  1.0000
  H   H1083     1.0  0.37443  0.12695  0.62932  1.0000
  O   O299      1.0  0.38878  0.12844  0.61244  1.0000
  H   H1084     1.0  0.41572  0.12909  0.61871  1.0000
  H   H1085     1.0  0.34662  0.14321  0.68184  1.0000
  O   O300      1.0  0.36772  0.15557  0.68257  1.0000
  H   H1086     1.0  0.36726  0.16538  0.70428  1.0000
  H   H1087     1.0  0.37383  0.12456  0.74153  1.0000
  O   O301      1.0  0.39121  0.12092  0.75488  1.0000
  H   H1088     1.0  0.38605  0.12450  0.78134  1.0000
  H   H1089     1.0  0.36077  0.12821  0.81813  1.0000
  O   O302      1.0  0.38210  0.13333  0.80742  1.0000
  H   H1090     1.0  0.40499  0.13251  0.82146  1.0000
  H   H1091     1.0  0.35589  0.18103  0.11096  1.0000
  O   O303      1.0  0.37714  0.18529  0.10503  1.0000
  H   H1092     1.0  0.37707  0.20790  0.10062  1.0000
  H   H1093     1.0  0.37902  0.17943  0.17352  1.0000
  O   O304      1.0  0.38878  0.19733  0.18241  1.0000
  H   H1094     1.0  0.38387  0.21856  0.17023  1.0000
  H   H1095     1.0  0.38926  0.18603  0.23919  1.0000
  O   O305      1.0  0.40734  0.17780  0.24998  1.0000
  H   H1096     1.0  0.43157  0.18441  0.22374  1.0000
  H   H1097     1.0  0.34049  0.18408  0.73631  1.0000
  O   O306      1.0  0.36081  0.17560  0.73540  1.0000
  H   H1098     1.0  0.37100  0.17984  0.75631  1.0000
  H   H1099     1.0  0.38125  0.16152  0.79932  1.0000
  O   O307      1.0  0.38183  0.18525  0.79003  1.0000
  H   H1100     1.0  0.36720  0.19755  0.80152  1.0000
  H   H1101     1.0  0.36892  0.18906  0.89995  1.0000
  O   O308      1.0  0.37256  0.18533  0.87772  1.0000
  H   H1102     1.0  0.40224  0.18680  0.87335  1.0000
  H   H1103     1.0  0.34784  0.25518  0.09895  1.0000
  O   O309      1.0  0.37281  0.24459  0.10248  1.0000
  H   H1104     1.0  0.38872  0.25548  0.09138  1.0000
  H   H1105     1.0  0.38967  0.26098  0.16632  1.0000
  O   O310      1.0  0.37724  0.24459  0.15752  1.0000
  H   H1106     1.0  0.37668  0.24523  0.13091  1.0000
  H   H1107     1.0  0.36610  0.26788  0.75286  1.0000
  O   O311      1.0  0.37262  0.25168  0.76756  1.0000
  H   H1108     1.0  0.38689  0.23835  0.75624  1.0000
  H   H1109     1.0  0.38647  0.25334  0.80766  1.0000
  O   O312      1.0  0.39568  0.24705  0.82747  1.0000
  H   H1110     1.0  0.41363  0.23332  0.82115  1.0000
  H   H1111     1.0  0.34492  0.23994  0.87865  1.0000
  O   O313      1.0  0.37043  0.23461  0.87746  1.0000
  H   H1112     1.0  0.38034  0.23831  0.85540  1.0000
  H   H1113     1.0  0.36065  0.30200  0.11616  1.0000
  O   O314      1.0  0.37957  0.31126  0.12248  1.0000
  H   H1114     1.0  0.37626  0.33489  0.12334  1.0000
  H   H1115     1.0  0.38114  0.28769  0.84055  1.0000
  O   O315      1.0  0.36820  0.30597  0.84245  1.0000
  H   H1116     1.0  0.36226  0.30734  0.86424  1.0000
  H   H1117     1.0  0.34271  0.36534  0.12363  1.0000
  O   O316      1.0  0.36550  0.36553  0.12506  1.0000
  H   H1118     1.0  0.37264  0.38688  0.12122  1.0000
  H   H1119     1.0  0.36008  0.37671  0.85864  1.0000
  O   O317      1.0  0.38188  0.38305  0.84996  1.0000
  H   H1120     1.0  0.38331  0.40618  0.85318  1.0000
  H   H1121     1.0  0.35323  0.43321  0.12088  1.0000
  O   O318      1.0  0.37496  0.42472  0.11483  1.0000
  H   H1122     1.0  0.37718  0.42814  0.09254  1.0000
  H   H1123     1.0  0.37151  0.43786  0.88611  1.0000
  O   O319      1.0  0.38421  0.43946  0.86767  1.0000
  H   H1124     1.0  0.37955  0.46132  0.85796  1.0000
  H   H1125     1.0  0.35374  0.49803  0.11109  1.0000
  O   O320      1.0  0.37013  0.50818  0.12231  1.0000
  H   H1126     1.0  0.36647  0.53204  0.12136  1.0000
  H   H1127     1.0  0.34530  0.49821  0.85860  1.0000
  O   O321      1.0  0.37287  0.49138  0.84791  1.0000
  H   H1128     1.0  0.38705  0.50483  0.85854  1.0000
  H   H1129     1.0  0.33363  0.56135  0.12064  1.0000
  O   O322      1.0  0.35633  0.56089  0.12001  1.0000
  H   H1130     1.0  0.36597  0.58106  0.12165  1.0000
  H   H1131     1.0  0.37039  0.56662  0.88077  1.0000
  O   O323      1.0  0.38895  0.57536  0.87261  1.0000
  H   H1132     1.0  0.38441  0.59745  0.86289  1.0000
  H   H1133     1.0  0.35298  0.62172  0.11889  1.0000
  O   O324      1.0  0.37597  0.62109  0.12206  1.0000
  H   H1134     1.0  0.38258  0.64331  0.12367  1.0000
  H   H1135     1.0  0.34965  0.62626  0.85735  1.0000
  O   O325      1.0  0.37518  0.62488  0.85008  1.0000
  H   H1136     1.0  0.38175  0.64531  0.85839  1.0000
  H   H1137     1.0  0.38312  0.69540  0.12069  1.0000
  O   O326      1.0  0.39359  0.67659  0.12753  1.0000
  H   H1138     1.0  0.41571  0.68049  0.12379  1.0000
  H   H1139     1.0  0.36900  0.68008  0.88844  1.0000
  O   O327      1.0  0.38197  0.68156  0.87020  1.0000
  H   H1140     1.0  0.38255  0.70575  0.86366  1.0000
  H   H1141     1.0  0.38720  0.74696  0.09691  1.0000
  O   O328      1.0  0.37502  0.73580  0.11191  1.0000
  H   H1142     1.0  0.37901  0.74430  0.13366  1.0000
  H   H1143     1.0  0.35605  0.74767  0.17366  1.0000
  O   O329      1.0  0.37957  0.75284  0.16766  1.0000
  H   H1144     1.0  0.39407  0.74001  0.17932  1.0000
  H   H1145     1.0  0.36711  0.73455  0.75329  1.0000
  O   O330      1.0  0.37177  0.75199  0.76686  1.0000
  H   H1146     1.0  0.36709  0.77100  0.75548  1.0000
  H   H1147     1.0  0.38584  0.75698  0.79786  1.0000
  O   O331      1.0  0.39328  0.76768  0.81751  1.0000
  H   H1148     1.0  0.41484  0.77958  0.81244  1.0000
  H   H1149     1.0  0.36926  0.74444  0.87385  1.0000
  O   O332      1.0  0.38650  0.73607  0.86239  1.0000
  H   H1150     1.0  0.38936  0.75092  0.84042  1.0000
  H   H1151     1.0  0.37669  0.83630  0.10632  1.0000
  O   O333      1.0  0.38499  0.81829  0.11631  1.0000
  H   H1152     1.0  0.37974  0.81677  0.14031  1.0000
  H   H1153     1.0  0.37962  0.81681  0.19105  1.0000
  O   O334      1.0  0.37488  0.80744  0.17010  1.0000
  H   H1154     1.0  0.38026  0.78364  0.17018  1.0000
  H   H1155     1.0  0.38091  0.81061  0.24108  1.0000
  O   O335      1.0  0.38883  0.82433  0.22509  1.0000
  H   H1156     1.0  0.41124  0.81630  0.21737  1.0000
  H   H1157     1.0  0.37902  0.82983  0.73126  1.0000
  O   O336      1.0  0.37975  0.81234  0.74738  1.0000
  H   H1158     1.0  0.39917  0.80203  0.74377  1.0000
  H   H1159     1.0  0.36906  0.81451  0.77879  1.0000
  O   O337      1.0  0.36352  0.81473  0.80239  1.0000
  H   H1160     1.0  0.37451  0.79612  0.81181  1.0000
  H   H1161     1.0  0.36879  0.81871  0.85900  1.0000
  O   O338      1.0  0.36824  0.80992  0.87989  1.0000
  H   H1162     1.0  0.38951  0.80889  0.88638  1.0000
  H   H1163     1.0  0.36997  0.89442  0.18129  1.0000
  O   O339      1.0  0.37051  0.87665  0.16752  1.0000
  H   H1164     1.0  0.39182  0.87038  0.16648  1.0000
  H   H1165     1.0  0.37693  0.87275  0.26401  1.0000
  O   O340      1.0  0.37732  0.87650  0.24014  1.0000
  H   H1166     1.0  0.38109  0.85392  0.23173  1.0000
  H   H1167     1.0  0.37387  0.86551  0.31489  1.0000
  O   O341      1.0  0.38218  0.85940  0.29490  1.0000
  H   H1168     1.0  0.40540  0.86035  0.29652  1.0000
  H   H1169     1.0  0.35069  0.86308  0.36143  1.0000
  O   O342      1.0  0.37272  0.86169  0.36778  1.0000
  H   H1170     1.0  0.37398  0.86123  0.39075  1.0000
  H   H1171     1.0  0.35677  0.85745  0.43132  1.0000
  O   O343      1.0  0.37955  0.85651  0.43013  1.0000
  H   H1172     1.0  0.38562  0.83466  0.42989  1.0000
  H   H1173     1.0  0.37371  0.86071  0.47597  1.0000
  O   O344      1.0  0.36121  0.85926  0.49490  1.0000
  H   H1174     1.0  0.37371  0.86068  0.51364  1.0000
  H   H1175     1.0  0.35102  0.86511  0.56880  1.0000
  O   O345      1.0  0.37256  0.86146  0.56498  1.0000
  H   H1176     1.0  0.37782  0.83943  0.56876  1.0000
  H   H1177     1.0  0.34225  0.86043  0.64643  1.0000
  O   O346      1.0  0.36318  0.86172  0.65728  1.0000
  H   H1178     1.0  0.37865  0.86784  0.64256  1.0000
  H   H1179     1.0  0.37256  0.85808  0.68916  1.0000
  O   O347      1.0  0.38434  0.85682  0.71003  1.0000
  H   H1180     1.0  0.40679  0.86005  0.70288  1.0000
  H   H1181     1.0  0.37810  0.87722  0.73291  1.0000
  O   O348      1.0  0.37264  0.89140  0.75252  1.0000
  H   H1182     1.0  0.37796  0.91261  0.74859  1.0000
  H   H1183     1.0  0.37725  0.87941  0.78888  1.0000
  O   O349      1.0  0.37957  0.86931  0.80976  1.0000
  H   H1184     1.0  0.37058  0.84776  0.80846  1.0000
  H   H1185     1.0  0.42936  0.15414  0.14859  1.0000
  O   O350      1.0  0.42837  0.13351  0.16484  1.0000
  H   H1186     1.0  0.44763  0.12723  0.17362  1.0000
  H   H1187     1.0  0.44007  0.12934  0.24636  1.0000
  O   O351      1.0  0.46074  0.13349  0.24007  1.0000
  H   H1188     1.0  0.46691  0.15501  0.24613  1.0000
  H   H1189     1.0  0.40678  0.13234  0.30528  1.0000
  O   O352      1.0  0.43751  0.13599  0.31744  1.0000
  H   H1190     1.0  0.44354  0.15716  0.31409  1.0000
  H   H1191     1.0  0.43776  0.09744  0.37104  1.0000
  O   O353      1.0  0.43712  0.11971  0.37169  1.0000
  H   H1192     1.0  0.43865  0.12996  0.34145  1.0000
  H   H1193     1.0  0.43775  0.15351  0.42975  1.0000
  O   O354      1.0  0.44671  0.13350  0.42502  1.0000
  H   H1194     1.0  0.44180  0.12737  0.40069  1.0000
  H   H1195     1.0  0.40141  0.12082  0.49532  1.0000
  O   O355      1.0  0.42589  0.12583  0.50222  1.0000
  H   H1196     1.0  0.43862  0.12221  0.48414  1.0000
  H   H1197     1.0  0.43994  0.12661  0.52609  1.0000
  O   O356      1.0  0.45585  0.12857  0.54767  1.0000
  H   H1198     1.0  0.44604  0.13679  0.56617  1.0000
  H   H1199     1.0  0.44663  0.10724  0.62411  1.0000
  O   O357      1.0  0.43995  0.12818  0.62743  1.0000
  H   H1200     1.0  0.42973  0.13400  0.65700  1.0000
  H   H1201     1.0  0.39185  0.14535  0.67839  1.0000
  O   O358      1.0  0.41708  0.13818  0.67752  1.0000
  H   H1202     1.0  0.42719  0.13939  0.69876  1.0000
  H   H1203     1.0  0.41309  0.13069  0.74453  1.0000
  O   O359      1.0  0.43513  0.14328  0.73260  1.0000
  H   H1204     1.0  0.43386  0.16539  0.73628  1.0000
  H   H1205     1.0  0.42895  0.15387  0.84853  1.0000
  O   O360      1.0  0.42894  0.13639  0.83366  1.0000
  H   H1206     1.0  0.45052  0.13512  0.82125  1.0000
  H   H1207     1.0  0.43401  0.19865  0.13316  1.0000
  O   O361      1.0  0.42788  0.17601  0.12974  1.0000
  H   H1208     1.0  0.40721  0.17671  0.11873  1.0000
  H   H1209     1.0  0.41550  0.19468  0.19048  1.0000
  O   O362      1.0  0.43754  0.19249  0.20271  1.0000
  H   H1210     1.0  0.45969  0.18764  0.19193  1.0000
  H   H1211     1.0  0.41195  0.19824  0.79632  1.0000
  O   O363      1.0  0.43057  0.20966  0.80504  1.0000
  H   H1212     1.0  0.44326  0.19496  0.81590  1.0000
  H   H1213     1.0  0.44014  0.21755  0.86991  1.0000
  O   O364      1.0  0.42689  0.18708  0.87122  1.0000
  H   H1214     1.0  0.43500  0.17876  0.89058  1.0000
  H   H1215     1.0  0.43596  0.25251  0.12525  1.0000
  O   O365      1.0  0.44220  0.23209  0.13511  1.0000
  H   H1216     1.0  0.45763  0.23652  0.15082  1.0000
  H   H1217     1.0  0.45061  0.27073  0.87569  1.0000
  O   O366      1.0  0.45372  0.23705  0.87002  1.0000
  H   H1218     1.0  0.46533  0.23846  0.84985  1.0000
  H   H1219     1.0  0.40797  0.29510  0.11673  1.0000
  O   O367      1.0  0.42825  0.28414  0.11254  1.0000
  H   H1220     1.0  0.44354  0.30041  0.11355  1.0000
  H   H1221     1.0  0.43894  0.30714  0.87325  1.0000
  O   O368      1.0  0.45587  0.29361  0.87755  1.0000
  H   H1222     1.0  0.48399  0.30680  0.87625  1.0000
  H   H1223     1.0  0.43920  0.35410  0.12363  1.0000
  O   O369      1.0  0.45836  0.34315  0.12244  1.0000
  H   H1224     1.0  0.47616  0.36004  0.12140  1.0000
  H   H1225     1.0  0.41091  0.37277  0.86079  1.0000
  O   O370      1.0  0.43283  0.36788  0.86768  1.0000
  H   H1226     1.0  0.43575  0.37623  0.88843  1.0000
  H   H1227     1.0  0.40670  0.43386  0.12909  1.0000
  O   O371      1.0  0.42806  0.44186  0.13501  1.0000
  H   H1228     1.0  0.42793  0.47329  0.12892  1.0000
  H   H1229     1.0  0.42373  0.43822  0.87863  1.0000
  O   O372      1.0  0.44439  0.44456  0.88493  1.0000
  H   H1230     1.0  0.44536  0.46755  0.88096  1.0000
  H   H1231     1.0  0.39789  0.49981  0.12101  1.0000
  O   O373      1.0  0.42200  0.49557  0.12175  1.0000
  H   H1232     1.0  0.43376  0.51677  0.12384  1.0000
  H   H1233     1.0  0.44363  0.50193  0.84624  1.0000
  O   O374      1.0  0.44631  0.49978  0.86862  1.0000
  H   H1234     1.0  0.44263  0.52119  0.87824  1.0000
  H   H1235     1.0  0.44262  0.54979  0.15234  1.0000
  O   O375      1.0  0.44214  0.54597  0.12996  1.0000
  H   H1236     1.0  0.43501  0.56630  0.11940  1.0000
  H   H1237     1.0  0.41597  0.56323  0.88088  1.0000
  O   O376      1.0  0.43736  0.55318  0.88754  1.0000
  H   H1238     1.0  0.44074  0.55684  0.90960  1.0000
  H   H1239     1.0  0.40406  0.60595  0.11338  1.0000
  O   O377      1.0  0.42586  0.59756  0.11008  1.0000
  H   H1240     1.0  0.44006  0.61343  0.11609  1.0000
  H   H1241     1.0  0.44300  0.61419  0.86435  1.0000
  O   O378      1.0  0.45838  0.62964  0.86749  1.0000
  H   H1242     1.0  0.44950  0.65372  0.86894  1.0000
  H   H1243     1.0  0.45518  0.68791  0.09345  1.0000
  O   O379      1.0  0.44906  0.69145  0.11488  1.0000
  H   H1244     1.0  0.45041  0.71439  0.11927  1.0000
  H   H1245     1.0  0.41429  0.67908  0.87185  1.0000
  O   O380      1.0  0.43748  0.67911  0.87006  1.0000
  H   H1246     1.0  0.44506  0.70071  0.86794  1.0000
  H   H1247     1.0  0.44499  0.76925  0.12129  1.0000
  O   O381      1.0  0.45611  0.74819  0.12762  1.0000
  H   H1248     1.0  0.46194  0.74897  0.14966  1.0000
  H   H1249     1.0  0.42054  0.73875  0.86936  1.0000
  O   O382      1.0  0.44343  0.73694  0.86797  1.0000
  H   H1250     1.0  0.45034  0.75469  0.85635  1.0000
  H   H1251     1.0  0.41274  0.80645  0.11307  1.0000
  O   O383      1.0  0.43525  0.79766  0.11515  1.0000
  H   H1252     1.0  0.44624  0.81174  0.12847  1.0000
  H   H1253     1.0  0.43843  0.82899  0.18883  1.0000
  O   O384      1.0  0.43553  0.80999  0.20261  1.0000
  H   H1254     1.0  0.45380  0.80661  0.21622  1.0000
  H   H1255     1.0  0.43263  0.82214  0.80966  1.0000
  O   O385      1.0  0.43551  0.79764  0.80503  1.0000
  H   H1256     1.0  0.45671  0.79211  0.80621  1.0000
  H   H1257     1.0  0.43670  0.83297  0.85826  1.0000
  O   O386      1.0  0.43755  0.81747  0.87489  1.0000
  H   H1258     1.0  0.45880  0.81613  0.88095  1.0000
  H   H1259     1.0  0.45460  0.87055  0.16591  1.0000
  O   O387      1.0  0.43771  0.86175  0.17729  1.0000
  H   H1260     1.0  0.43639  0.87207  0.19917  1.0000
  H   H1261     1.0  0.40889  0.88435  0.23422  1.0000
  O   O388      1.0  0.43237  0.88170  0.23041  1.0000
  H   H1262     1.0  0.43906  0.86719  0.24631  1.0000
  H   H1263     1.0  0.45434  0.87730  0.29590  1.0000
  O   O389      1.0  0.43769  0.86435  0.30263  1.0000
  H   H1264     1.0  0.43634  0.86522  0.32666  1.0000
  H   H1265     1.0  0.40398  0.86604  0.36066  1.0000
  O   O390      1.0  0.42724  0.86789  0.35856  1.0000
  H   H1266     1.0  0.43666  0.85775  0.37616  1.0000
  H   H1267     1.0  0.41943  0.87037  0.43400  1.0000
  O   O391      1.0  0.43956  0.87414  0.44276  1.0000
  H   H1268     1.0  0.43771  0.87979  0.46604  1.0000
  H   H1269     1.0  0.43422  0.91395  0.49654  1.0000
  O   O392      1.0  0.43523  0.89173  0.49751  1.0000
  H   H1270     1.0  0.43137  0.88552  0.52051  1.0000
  H   H1271     1.0  0.40198  0.87626  0.55860  1.0000
  O   O393      1.0  0.42362  0.88146  0.55260  1.0000
  H   H1272     1.0  0.43680  0.87518  0.56951  1.0000
  H   H1273     1.0  0.43155  0.90715  0.62385  1.0000
  O   O394      1.0  0.43757  0.88656  0.62996  1.0000
  H   H1274     1.0  0.46033  0.88491  0.62732  1.0000
  H   H1275     1.0  0.43192  0.87589  0.66668  1.0000
  O   O395      1.0  0.43395  0.86907  0.68884  1.0000
  H   H1276     1.0  0.45579  0.86323  0.69112  1.0000
  H   H1277     1.0  0.44375  0.87232  0.74199  1.0000
  O   O396      1.0  0.45602  0.86667  0.75994  1.0000
  H   H1278     1.0  0.46666  0.84625  0.75593  1.0000
  H   H1279     1.0  0.40859  0.86115  0.81442  1.0000
  O   O397      1.0  0.43085  0.85168  0.81484  1.0000
  H   H1280     1.0  0.44160  0.86081  0.79676  1.0000
  H   H1281     1.0  0.50296  0.14812  0.18624  1.0000
  O   O398      1.0  0.50859  0.12684  0.18085  1.0000
  H   H1282     1.0  0.53086  0.12688  0.17316  1.0000
  H   H1283     1.0  0.49003  0.11859  0.24240  1.0000
  O   O399      1.0  0.51160  0.11091  0.24739  1.0000
  H   H1284     1.0  0.51507  0.09317  0.23407  1.0000
  H   H1285     1.0  0.48252  0.12720  0.30677  1.0000
  O   O400      1.0  0.50460  0.12583  0.30740  1.0000
  H   H1286     1.0  0.51038  0.11763  0.28650  1.0000
  H   H1287     1.0  0.48022  0.12458  0.37206  1.0000
  O   O401      1.0  0.50224  0.12594  0.37480  1.0000
  H   H1288     1.0  0.51091  0.12436  0.35374  1.0000
  H   H1289     1.0  0.47354  0.12994  0.43240  1.0000
  O   O402      1.0  0.49839  0.12647  0.43632  1.0000
  H   H1290     1.0  0.50866  0.12472  0.41599  1.0000
  H   H1291     1.0  0.50853  0.13229  0.50616  1.0000
  O   O403      1.0  0.51619  0.11859  0.48749  1.0000
  H   H1292     1.0  0.50848  0.12207  0.45962  1.0000
  H   H1293     1.0  0.47896  0.14002  0.54152  1.0000
  O   O404      1.0  0.50248  0.15050  0.53249  1.0000
  H   H1294     1.0  0.51929  0.14493  0.54617  1.0000
  H   H1295     1.0  0.48583  0.14650  0.62339  1.0000
  O   O405      1.0  0.50448  0.15063  0.63496  1.0000
  H   H1296     1.0  0.49971  0.13237  0.66339  1.0000
  H   H1297     1.0  0.48501  0.09957  0.67393  1.0000
  O   O406      1.0  0.49577  0.11735  0.68163  1.0000
  H   H1298     1.0  0.49235  0.12373  0.71420  1.0000
  H   H1299     1.0  0.49860  0.15306  0.73891  1.0000
  O   O407      1.0  0.48717  0.13129  0.73653  1.0000
  H   H1300     1.0  0.46191  0.13558  0.73622  1.0000
  H   H1301     1.0  0.48933  0.15896  0.81088  1.0000
  O   O408      1.0  0.47683  0.13832  0.80746  1.0000
  H   H1302     1.0  0.48233  0.12769  0.78834  1.0000
  H   H1303     1.0  0.48112  0.18158  0.11386  1.0000
  O   O409      1.0  0.49738  0.19091  0.12595  1.0000
  H   H1304     1.0  0.50084  0.21493  0.11885  1.0000
  H   H1305     1.0  0.49080  0.21061  0.18629  1.0000
  O   O410      1.0  0.48660  0.18864  0.18131  1.0000
  H   H1306     1.0  0.49046  0.18777  0.15677  1.0000
  H   H1307     1.0  0.47557  0.20390  0.24383  1.0000
  O   O411      1.0  0.48145  0.18538  0.25496  1.0000
  H   H1308     1.0  0.50167  0.18899  0.26393  1.0000
  H   H1309     1.0  0.50627  0.20113  0.74622  1.0000
  O   O412      1.0  0.51169  0.18011  0.73747  1.0000
  H   H1310     1.0  0.53105  0.18176  0.72673  1.0000
  H   H1311     1.0  0.49588  0.20558  0.81361  1.0000
  O   O413      1.0  0.50470  0.18519  0.81755  1.0000
  H   H1312     1.0  0.52883  0.18535  0.81061  1.0000
  H   H1313     1.0  0.51025  0.18256  0.85447  1.0000
  O   O414      1.0  0.51957  0.18335  0.87608  1.0000
  H   H1314     1.0  0.51111  0.20172  0.88892  1.0000
  H   H1315     1.0  0.50755  0.26413  0.12106  1.0000
  O   O415      1.0  0.50687  0.24216  0.10929  1.0000
  H   H1316     1.0  0.50103  0.24534  0.08778  1.0000
  H   H1317     1.0  0.46884  0.25988  0.19372  1.0000
  O   O416      1.0  0.48388  0.24742  0.18260  1.0000
  H   H1318     1.0  0.50148  0.26067  0.17884  1.0000
  H   H1319     1.0  0.48955  0.24507  0.74144  1.0000
  O   O417      1.0  0.50225  0.23254  0.75506  1.0000
  H   H1320     1.0  0.51799  0.24583  0.76407  1.0000
  H   H1321     1.0  0.47337  0.25491  0.80631  1.0000
  O   O418      1.0  0.48610  0.24466  0.82229  1.0000
  H   H1322     1.0  0.50366  0.25788  0.82589  1.0000
  H   H1323     1.0  0.47857  0.23362  0.89092  1.0000
  O   O419      1.0  0.49923  0.22901  0.90132  1.0000
  H   H1324     1.0  0.50141  0.23829  0.92164  1.0000
  H   H1325     1.0  0.49587  0.30716  0.13127  1.0000
  O   O420      1.0  0.51165  0.29158  0.13246  1.0000
  H   H1326     1.0  0.53336  0.30016  0.12566  1.0000
  H   H1327     1.0  0.49604  0.34380  0.86367  1.0000
  O   O421      1.0  0.50261  0.32112  0.87251  1.0000
  H   H1328     1.0  0.52601  0.31803  0.87589  1.0000
  H   H1329     1.0  0.49477  0.40399  0.11733  1.0000
  O   O422      1.0  0.49792  0.38065  0.12247  1.0000
  H   H1330     1.0  0.52147  0.37841  0.12309  1.0000
  H   H1331     1.0  0.46282  0.36667  0.85263  1.0000
  O   O423      1.0  0.48603  0.36805  0.85000  1.0000
  H   H1332     1.0  0.49030  0.39186  0.85860  1.0000
  H   H1333     1.0  0.49874  0.45640  0.11723  1.0000
  O   O424      1.0  0.50006  0.43455  0.10727  1.0000
  H   H1334     1.0  0.51721  0.43453  0.09314  1.0000
  H   H1335     1.0  0.47088  0.43047  0.87571  1.0000
  O   O425      1.0  0.49090  0.41971  0.86767  1.0000
  H   H1336     1.0  0.51022  0.42818  0.87478  1.0000
  H   H1337     1.0  0.50209  0.50649  0.12166  1.0000
  O   O426      1.0  0.50581  0.48523  0.13043  1.0000
  H   H1338     1.0  0.52814  0.48434  0.13419  1.0000
  H   H1339     1.0  0.48925  0.49483  0.85901  1.0000
  O   O427      1.0  0.50461  0.50615  0.84759  1.0000
  H   H1340     1.0  0.50085  0.52970  0.85155  1.0000
  H   H1341     1.0  0.49944  0.55970  0.11917  1.0000
  O   O428      1.0  0.50941  0.54080  0.11247  1.0000
  H   H1342     1.0  0.53157  0.54419  0.11167  1.0000
  H   H1343     1.0  0.47083  0.55915  0.86847  1.0000
  O   O429      1.0  0.49055  0.55824  0.85761  1.0000
  H   H1344     1.0  0.49760  0.57932  0.85135  1.0000
  H   H1345     1.0  0.49465  0.61355  0.10920  1.0000
  O   O430      1.0  0.50211  0.60748  0.12961  1.0000
  H   H1346     1.0  0.52440  0.61100  0.12874  1.0000
  H   H1347     1.0  0.48376  0.62208  0.85882  1.0000
  O   O431      1.0  0.50578  0.61413  0.84834  1.0000
  H   H1348     1.0  0.52439  0.61363  0.86083  1.0000
  H   H1349     1.0  0.49971  0.67725  0.12331  1.0000
  O   O432      1.0  0.51625  0.68414  0.11008  1.0000
  H   H1350     1.0  0.51257  0.70676  0.10567  1.0000
  H   H1351     1.0  0.50167  0.66298  0.86653  1.0000
  O   O433      1.0  0.51789  0.67494  0.87553  1.0000
  H   H1352     1.0  0.51224  0.69737  0.87958  1.0000
  H   H1353     1.0  0.51004  0.75439  0.08590  1.0000
  O   O434      1.0  0.50704  0.74140  0.10402  1.0000
  H   H1354     1.0  0.48608  0.74629  0.11351  1.0000
  H   H1355     1.0  0.47139  0.74193  0.19803  1.0000
  O   O435      1.0  0.48809  0.75034  0.18533  1.0000
  H   H1356     1.0  0.50595  0.73682  0.18851  1.0000
  H   H1357     1.0  0.48871  0.74905  0.74600  1.0000
  O   O436      1.0  0.50240  0.76556  0.75220  1.0000
  H   H1358     1.0  0.52053  0.76410  0.73883  1.0000
  H   H1359     1.0  0.48308  0.73187  0.81377  1.0000
  O   O437      1.0  0.50212  0.74063  0.82231  1.0000
  H   H1360     1.0  0.51865  0.72977  0.81091  1.0000
  H   H1361     1.0  0.49590  0.73973  0.89345  1.0000
  O   O438      1.0  0.51141  0.73101  0.87998  1.0000
  H   H1362     1.0  0.50672  0.73703  0.85756  1.0000
  H   H1363     1.0  0.50388  0.82601  0.10581  1.0000
  O   O439      1.0  0.51848  0.81231  0.11518  1.0000
  H   H1364     1.0  0.51240  0.80870  0.13761  1.0000
  H   H1365     1.0  0.49633  0.81852  0.18618  1.0000
  O   O440      1.0  0.50467  0.80276  0.17267  1.0000
  H   H1366     1.0  0.49645  0.78153  0.17889  1.0000
  H   H1367     1.0  0.46630  0.80095  0.26051  1.0000
  O   O441      1.0  0.47903  0.80731  0.24266  1.0000
  H   H1368     1.0  0.49917  0.79854  0.24644  1.0000
  H   H1369     1.0  0.49194  0.79941  0.74896  1.0000
  O   O442      1.0  0.49101  0.82218  0.75486  1.0000
  H   H1370     1.0  0.50840  0.83329  0.74583  1.0000
  H   H1371     1.0  0.49842  0.81127  0.78926  1.0000
  O   O443      1.0  0.50231  0.80155  0.81005  1.0000
  H   H1372     1.0  0.50429  0.77899  0.80899  1.0000
  H   H1373     1.0  0.50479  0.81404  0.84034  1.0000
  O   O444      1.0  0.50918  0.82252  0.86248  1.0000
  H   H1374     1.0  0.50808  0.84484  0.86060  1.0000
  H   H1375     1.0  0.51729  0.90491  0.16397  1.0000
  O   O445      1.0  0.51838  0.88481  0.17372  1.0000
  H   H1376     1.0  0.51219  0.88788  0.19626  1.0000
  H   H1377     1.0  0.47428  0.89784  0.22890  1.0000
  O   O446      1.0  0.49636  0.89589  0.22839  1.0000
  H   H1378     1.0  0.50323  0.89188  0.25008  1.0000
  H   H1379     1.0  0.50955  0.87249  0.31118  1.0000
  O   O447      1.0  0.50690  0.87390  0.28753  1.0000
  H   H1380     1.0  0.50368  0.85283  0.28072  1.0000
  H   H1381     1.0  0.49992  0.86053  0.35974  1.0000
  O   O448      1.0  0.51623  0.86422  0.34514  1.0000
  H   H1382     1.0  0.53582  0.86703  0.35769  1.0000
  H   H1383     1.0  0.46680  0.87275  0.43013  1.0000
  O   O449      1.0  0.49060  0.87152  0.42512  1.0000
  H   H1384     1.0  0.49819  0.89032  0.41587  1.0000
  H   H1385     1.0  0.50176  0.86492  0.45321  1.0000
  O   O450      1.0  0.50899  0.86187  0.47737  1.0000
  H   H1386     1.0  0.49370  0.87023  0.49123  1.0000
  H   H1387     1.0  0.49890  0.85553  0.56022  1.0000
  O   O451      1.0  0.51166  0.86901  0.57246  1.0000
  H   H1388     1.0  0.53424  0.86569  0.56592  1.0000
  H   H1389     1.0  0.50241  0.87547  0.60254  1.0000
  O   O452      1.0  0.49560  0.88242  0.62514  1.0000
  H   H1390     1.0  0.50490  0.90238  0.62866  1.0000
  H   H1391     1.0  0.49595  0.86756  0.66306  1.0000
  O   O453      1.0  0.49087  0.86177  0.68487  1.0000
  H   H1392     1.0  0.50806  0.86518  0.69860  1.0000
  H   H1393     1.0  0.48411  0.88811  0.77117  1.0000
  O   O454      1.0  0.50460  0.89606  0.77742  1.0000
  H   H1394     1.0  0.51996  0.88729  0.76158  1.0000
  H   H1395     1.0  0.51220  0.90050  0.84401  1.0000
  O   O455      1.0  0.51843  0.88417  0.83009  1.0000
  H   H1396     1.0  0.51162  0.88996  0.80575  1.0000
  H   H1397     1.0  0.56128  0.11219  0.14162  1.0000
  O   O456      1.0  0.56026  0.12835  0.15722  1.0000
  H   H1398     1.0  0.55937  0.14975  0.14492  1.0000
  H   H1399     1.0  0.54537  0.12778  0.24056  1.0000
  O   O457      1.0  0.56696  0.13347  0.23738  1.0000
  H   H1400     1.0  0.57132  0.15443  0.22815  1.0000
  H   H1401     1.0  0.55279  0.13490  0.31358  1.0000
  O   O458      1.0  0.57189  0.13350  0.32466  1.0000
  H   H1402     1.0  0.59129  0.13866  0.31138  1.0000
  H   H1403     1.0  0.57597  0.11941  0.35113  1.0000
  O   O459      1.0  0.58101  0.10816  0.37264  1.0000
  H   H1404     1.0  0.57893  0.08615  0.37130  1.0000
  H   H1405     1.0  0.58225  0.12182  0.40028  1.0000
  O   O460      1.0  0.58311  0.13345  0.42230  1.0000
  H   H1406     1.0  0.56778  0.14937  0.42358  1.0000
  H   H1407     1.0  0.53549  0.10963  0.49426  1.0000
  O   O461      1.0  0.56552  0.10706  0.52140  1.0000
  H   H1408     1.0  0.59992  0.11159  0.50653  1.0000
  H   H1409     1.0  0.56025  0.12714  0.60040  1.0000
  O   O462      1.0  0.56481  0.12572  0.54964  1.0000
  H   H1410     1.0  0.59788  0.13528  0.55882  1.0000
  H   H1411     1.0  0.52683  0.14230  0.62482  1.0000
  O   O463      1.0  0.55322  0.13572  0.61992  1.0000
  H   H1412     1.0  0.56638  0.13208  0.64125  1.0000
  H   H1413     1.0  0.56430  0.12028  0.68383  1.0000
  O   O464      1.0  0.57809  0.12817  0.66814  1.0000
  H   H1414     1.0  0.59873  0.13537  0.67839  1.0000
  H   H1415     1.0  0.57517  0.12757  0.77234  1.0000
  O   O465      1.0  0.58105  0.13304  0.75032  1.0000
  H   H1416     1.0  0.59544  0.15759  0.75171  1.0000
  H   H1417     1.0  0.56550  0.12072  0.82666  1.0000
  O   O466      1.0  0.57630  0.13075  0.80982  1.0000
  H   H1418     1.0  0.56885  0.15339  0.80872  1.0000
  H   H1419     1.0  0.53210  0.17935  0.12560  1.0000
  O   O467      1.0  0.55431  0.17584  0.12840  1.0000
  H   H1420     1.0  0.56435  0.19648  0.13145  1.0000
  H   H1421     1.0  0.57086  0.20132  0.21419  1.0000
  O   O468      1.0  0.58574  0.18526  0.21758  1.0000
  H   H1422     1.0  0.60449  0.18838  0.20151  1.0000
  H   H1423     1.0  0.56672  0.18987  0.83560  1.0000
  O   O469      1.0  0.55787  0.18507  0.80767  1.0000
  H   H1424     1.0  0.56626  0.19764  0.79118  1.0000
  H   H1425     1.0  0.54681  0.18644  0.87128  1.0000
  O   O470      1.0  0.57012  0.19174  0.86120  1.0000
  H   H1426     1.0  0.57656  0.21344  0.86645  1.0000
  H   H1427     1.0  0.56241  0.24587  0.12900  1.0000
  O   O471      1.0  0.57655  0.22975  0.13482  1.0000
  H   H1428     1.0  0.59743  0.23628  0.12880  1.0000
  H   H1429     1.0  0.57536  0.26498  0.86883  1.0000
  O   O472      1.0  0.58812  0.24693  0.86724  1.0000
  H   H1430     1.0  0.60115  0.24718  0.84672  1.0000
  H   H1431     1.0  0.55658  0.31690  0.09142  1.0000
  O   O473      1.0  0.55990  0.30875  0.11215  1.0000
  H   H1432     1.0  0.58330  0.31105  0.11763  1.0000
  H   H1433     1.0  0.55887  0.34718  0.86906  1.0000
  O   O474      1.0  0.55647  0.32456  0.87531  1.0000
  H   H1434     1.0  0.57692  0.31574  0.87653  1.0000
  H   H1435     1.0  0.56144  0.40449  0.11643  1.0000
  O   O475      1.0  0.55313  0.38249  0.12253  1.0000
  H   H1436     1.0  0.56841  0.36671  0.12354  1.0000
  H   H1437     1.0  0.55952  0.39930  0.86590  1.0000
  O   O476      1.0  0.56481  0.37808  0.85750  1.0000
  H   H1438     1.0  0.58506  0.37947  0.84850  1.0000
  H   H1439     1.0  0.56556  0.45252  0.11625  1.0000
  O   O477      1.0  0.57204  0.43233  0.10746  1.0000
  H   H1440     1.0  0.59502  0.43344  0.10695  1.0000
  H   H1441     1.0  0.56153  0.45343  0.87085  1.0000
  O   O478      1.0  0.55533  0.43217  0.87982  1.0000
  H   H1442     1.0  0.56214  0.43197  0.90135  1.0000
  H   H1443     1.0  0.56803  0.50950  0.12854  1.0000
  O   O479      1.0  0.56475  0.48636  0.13500  1.0000
  H   H1444     1.0  0.57836  0.48097  0.15180  1.0000
  H   H1445     1.0  0.56175  0.50348  0.86856  1.0000
  O   O480      1.0  0.57174  0.48407  0.86246  1.0000
  H   H1446     1.0  0.59179  0.48947  0.85333  1.0000
  H   H1447     1.0  0.56643  0.55080  0.14310  1.0000
  O   O481      1.0  0.56952  0.54093  0.12283  1.0000
  H   H1448     1.0  0.59125  0.54894  0.11352  1.0000
  H   H1449     1.0  0.56018  0.56676  0.87677  1.0000
  O   O482      1.0  0.56731  0.54554  0.88005  1.0000
  H   H1450     1.0  0.58933  0.54693  0.88110  1.0000
  H   H1451     1.0  0.56565  0.63803  0.11410  1.0000
  O   O483      1.0  0.55922  0.61855  0.12320  1.0000
  H   H1452     1.0  0.57729  0.60608  0.12608  1.0000
  H   H1453     1.0  0.56244  0.62271  0.88930  1.0000
  O   O484      1.0  0.56481  0.60767  0.87271  1.0000
  H   H1454     1.0  0.58708  0.60861  0.86667  1.0000
  H   H1455     1.0  0.54995  0.68594  0.12061  1.0000
  O   O485      1.0  0.57179  0.69138  0.12493  1.0000
  H   H1456     1.0  0.57340  0.71431  0.12559  1.0000
  H   H1457     1.0  0.54820  0.67767  0.86903  1.0000
  O   O486      1.0  0.56970  0.68646  0.86497  1.0000
  H   H1458     1.0  0.56783  0.70357  0.85069  1.0000
  H   H1459     1.0  0.54500  0.75133  0.11872  1.0000
  O   O487      1.0  0.56696  0.75070  0.12257  1.0000
  H   H1460     1.0  0.57397  0.77194  0.12579  1.0000
  H   H1461     1.0  0.55913  0.74629  0.87807  1.0000
  O   O488      1.0  0.57645  0.75553  0.86751  1.0000
  H   H1462     1.0  0.57200  0.77996  0.86452  1.0000
  H   H1463     1.0  0.55545  0.81524  0.11622  1.0000
  O   O489      1.0  0.57632  0.81492  0.12501  1.0000
  H   H1464     1.0  0.57707  0.83329  0.13927  1.0000
  H   H1465     1.0  0.54232  0.80377  0.18733  1.0000
  O   O490      1.0  0.56232  0.80716  0.19733  1.0000
  H   H1466     1.0  0.57772  0.80370  0.18140  1.0000
  H   H1467     1.0  0.55375  0.81600  0.79077  1.0000
  O   O491      1.0  0.56477  0.83445  0.78492  1.0000
  H   H1468     1.0  0.56827  0.84655  0.80532  1.0000
  H   H1469     1.0  0.54032  0.81276  0.86622  1.0000
  O   O492      1.0  0.56322  0.80844  0.86336  1.0000
  H   H1470     1.0  0.57091  0.82751  0.85349  1.0000
  H   H1471     1.0  0.55198  0.87021  0.16362  1.0000
  O   O493      1.0  0.57325  0.86233  0.16177  1.0000
  H   H1472     1.0  0.58009  0.86283  0.18355  1.0000
  H   H1473     1.0  0.56578  0.83625  0.21869  1.0000
  O   O494      1.0  0.57181  0.85667  0.22746  1.0000
  H   H1474     1.0  0.56592  0.85798  0.24918  1.0000
  H   H1475     1.0  0.56349  0.84760  0.30841  1.0000
  O   O495      1.0  0.57172  0.86662  0.29993  1.0000
  H   H1476     1.0  0.55408  0.87975  0.29620  1.0000
  H   H1477     1.0  0.56999  0.86991  0.39792  1.0000
  O   O496      1.0  0.56493  0.86915  0.37503  1.0000
  H   H1478     1.0  0.58380  0.86548  0.36381  1.0000
  H   H1479     1.0  0.58145  0.84141  0.43087  1.0000
  O   O497      1.0  0.58348  0.86381  0.43250  1.0000
  H   H1480     1.0  0.57173  0.87058  0.45498  1.0000
  H   H1481     1.0  0.53603  0.87020  0.48091  1.0000
  O   O498      1.0  0.56017  0.87648  0.48031  1.0000
  H   H1482     1.0  0.57049  0.87071  0.49936  1.0000
  H   H1483     1.0  0.56375  0.83301  0.56076  1.0000
  O   O499      1.0  0.56327  0.85553  0.55747  1.0000
  H   H1484     1.0  0.58470  0.86303  0.55591  1.0000
  H   H1485     1.0  0.55162  0.86784  0.62648  1.0000
  O   O500      1.0  0.56711  0.87649  0.63984  1.0000
  H   H1486     1.0  0.58747  0.87741  0.62801  1.0000
  H   H1487     1.0  0.57540  0.84038  0.69502  1.0000
  O   O501      1.0  0.57443  0.86290  0.69425  1.0000
  H   H1488     1.0  0.56999  0.86910  0.67097  1.0000
  H   H1489     1.0  0.55064  0.85358  0.75913  1.0000
  O   O502      1.0  0.53925  0.86639  0.74292  1.0000
  H   H1490     1.0  0.55247  0.86874  0.72417  1.0000
  H   H1491     1.0  0.54500  0.87271  0.83392  1.0000
  O   O503      1.0  0.56746  0.86200  0.83516  1.0000
  H   H1492     1.0  0.58198  0.87763  0.84106  1.0000
  H   H1493     1.0  0.60711  0.12466  0.17362  1.0000
  O   O504      1.0  0.62767  0.13244  0.17672  1.0000
  H   H1494     1.0  0.62618  0.15511  0.17592  1.0000
  H   H1495     1.0  0.59154  0.11916  0.24439  1.0000
  O   O505      1.0  0.61346  0.11105  0.25241  1.0000
  H   H1496     1.0  0.62841  0.11009  0.23588  1.0000
  H   H1497     1.0  0.62093  0.16396  0.28456  1.0000
  O   O506      1.0  0.61977  0.14273  0.29671  1.0000
  H   H1498     1.0  0.61900  0.12627  0.27673  1.0000
  H   H1499     1.0  0.63890  0.13693  0.31591  1.0000
  O   O507      1.0  0.65742  0.12796  0.33253  1.0000
  H   H1500     1.0  0.65184  0.10678  0.33664  1.0000
  H   H1501     1.0  0.60779  0.14172  0.43573  1.0000
  O   O508      1.0  0.62780  0.14753  0.44917  1.0000
  H   H1502     1.0  0.65165  0.14121  0.43793  1.0000
  H   H1503     1.0  0.62577  0.13583  0.46934  1.0000
  O   O509      1.0  0.62039  0.11598  0.49781  1.0000
  H   H1504     1.0  0.63588  0.10737  0.51128  1.0000
  H   H1505     1.0  0.61327  0.16625  0.57092  1.0000
  O   O510      1.0  0.61732  0.14443  0.56752  1.0000
  H   H1506     1.0  0.64689  0.13582  0.55867  1.0000
  H   H1507     1.0  0.63785  0.13664  0.66463  1.0000
  O   O511      1.0  0.64360  0.13082  0.63717  1.0000
  H   H1508     1.0  0.62662  0.12733  0.62333  1.0000
  H   H1509     1.0  0.63259  0.16085  0.69698  1.0000
  O   O512      1.0  0.62739  0.14113  0.68780  1.0000
  H   H1510     1.0  0.62979  0.11728  0.71377  1.0000
  H   H1511     1.0  0.59767  0.11752  0.74297  1.0000
  O   O513      1.0  0.62509  0.10378  0.73260  1.0000
  H   H1512     1.0  0.63986  0.10777  0.74906  1.0000
  H   H1513     1.0  0.61778  0.11731  0.80803  1.0000
  O   O514      1.0  0.63899  0.12132  0.80250  1.0000
  H   H1514     1.0  0.64009  0.14418  0.80174  1.0000
  H   H1515     1.0  0.61640  0.17604  0.11878  1.0000
  O   O515      1.0  0.63435  0.18535  0.10994  1.0000
  H   H1516     1.0  0.63241  0.20953  0.10916  1.0000
  H   H1517     1.0  0.62318  0.21760  0.17851  1.0000
  O   O516      1.0  0.62728  0.19510  0.18256  1.0000
  H   H1518     1.0  0.65055  0.19405  0.18636  1.0000
  H   H1519     1.0  0.60499  0.18857  0.24704  1.0000
  O   O517      1.0  0.62040  0.18784  0.26483  1.0000
  H   H1520     1.0  0.63770  0.20114  0.26106  1.0000
  H   H1521     1.0  0.60376  0.19637  0.74388  1.0000
  O   O518      1.0  0.61073  0.17798  0.75451  1.0000
  H   H1522     1.0  0.62545  0.18134  0.77684  1.0000
  H   H1523     1.0  0.62730  0.19377  0.81601  1.0000
  O   O519      1.0  0.63891  0.18280  0.80025  1.0000
  H   H1524     1.0  0.66526  0.19194  0.80237  1.0000
  H   H1525     1.0  0.62870  0.16666  0.87906  1.0000
  O   O520      1.0  0.64588  0.18001  0.88248  1.0000
  H   H1526     1.0  0.64123  0.20530  0.88886  1.0000
  H   H1527     1.0  0.62597  0.24840  0.08827  1.0000
  O   O521      1.0  0.63138  0.24113  0.10894  1.0000
  H   H1528     1.0  0.65314  0.25281  0.11544  1.0000
  H   H1529     1.0  0.60158  0.26249  0.18877  1.0000
  O   O522      1.0  0.62032  0.25210  0.18256  1.0000
  H   H1530     1.0  0.63773  0.26327  0.19094  1.0000
  H   H1531     1.0  0.62259  0.25912  0.75371  1.0000
  O   O523      1.0  0.62514  0.23967  0.76495  1.0000
  H   H1532     1.0  0.64396  0.23087  0.75663  1.0000
  H   H1533     1.0  0.62327  0.24287  0.80042  1.0000
  O   O524      1.0  0.62386  0.24256  0.82412  1.0000
  H   H1534     1.0  0.64433  0.24793  0.83124  1.0000
  H   H1535     1.0  0.61811  0.24040  0.88774  1.0000
  O   O525      1.0  0.63874  0.23218  0.89262  1.0000
  H   H1536     1.0  0.65596  0.24421  0.88088  1.0000
  H   H1537     1.0  0.62040  0.33965  0.12375  1.0000
  O   O526      1.0  0.61246  0.31706  0.12087  1.0000
  H   H1538     1.0  0.62648  0.30189  0.12883  1.0000
  H   H1539     1.0  0.61677  0.30231  0.84551  1.0000
  O   O527      1.0  0.61648  0.31127  0.86626  1.0000
  H   H1540     1.0  0.63823  0.31203  0.87341  1.0000
  H   H1541     1.0  0.62278  0.38847  0.12865  1.0000
  O   O528      1.0  0.63207  0.36824  0.12739  1.0000
  H   H1542     1.0  0.65341  0.37001  0.11658  1.0000
  H   H1543     1.0  0.62917  0.39862  0.85856  1.0000
  O   O529      1.0  0.62960  0.37519  0.84995  1.0000
  H   H1544     1.0  0.62434  0.35863  0.86408  1.0000
  H   H1545     1.0  0.63045  0.46121  0.12375  1.0000
  O   O530      1.0  0.62757  0.43935  0.11484  1.0000
  H   H1546     1.0  0.64679  0.43308  0.10602  1.0000
  H   H1547     1.0  0.61665  0.43974  0.85187  1.0000
  O   O531      1.0  0.62970  0.42732  0.86496  1.0000
  H   H1548     1.0  0.65158  0.43764  0.86943  1.0000
  H   H1549     1.0  0.62880  0.50980  0.12431  1.0000
  O   O532      1.0  0.63671  0.49171  0.13501  1.0000
  H   H1550     1.0  0.65987  0.49512  0.13850  1.0000
  H   H1551     1.0  0.62821  0.52470  0.85248  1.0000
  O   O533      1.0  0.62740  0.49878  0.84533  1.0000
  H   H1552     1.0  0.63711  0.48766  0.86226  1.0000
  H   H1553     1.0  0.62581  0.58168  0.11325  1.0000
  O   O534      1.0  0.61804  0.55811  0.10506  1.0000
  H   H1554     1.0  0.62355  0.55460  0.08353  1.0000
  H   H1555     1.0  0.62357  0.56782  0.85107  1.0000
  O   O535      1.0  0.63196  0.55042  0.86243  1.0000
  H   H1556     1.0  0.65680  0.55548  0.86947  1.0000
  H   H1557     1.0  0.62488  0.62875  0.11858  1.0000
  O   O536      1.0  0.63437  0.60727  0.12248  1.0000
  H   H1558     1.0  0.65742  0.60972  0.12428  1.0000
  H   H1559     1.0  0.62351  0.63666  0.86327  1.0000
  O   O537      1.0  0.62262  0.61240  0.86487  1.0000
  H   H1560     1.0  0.63167  0.60595  0.88435  1.0000
  H   H1561     1.0  0.59659  0.67354  0.11959  1.0000
  O   O538      1.0  0.61571  0.65946  0.11490  1.0000
  H   H1562     1.0  0.63064  0.67125  0.10356  1.0000
  H   H1563     1.0  0.59802  0.67500  0.86263  1.0000
  O   O539      1.0  0.62040  0.66678  0.86003  1.0000
  H   H1564     1.0  0.63478  0.68349  0.86095  1.0000
  H   H1565     1.0  0.62910  0.73886  0.12927  1.0000
  O   O540      1.0  0.64345  0.74840  0.11504  1.0000
  H   H1566     1.0  0.63791  0.77143  0.11368  1.0000
  H   H1567     1.0  0.59559  0.73432  0.18674  1.0000
  O   O541      1.0  0.61566  0.74301  0.18255  1.0000
  H   H1568     1.0  0.63124  0.72933  0.19136  1.0000
  H   H1569     1.0  0.60082  0.75863  0.73637  1.0000
  O   O542      1.0  0.61105  0.74342  0.74979  1.0000
  H   H1570     1.0  0.62821  0.73438  0.73855  1.0000
  H   H1571     1.0  0.59880  0.74175  0.82059  1.0000
  O   O543      1.0  0.61556  0.74808  0.80746  1.0000
  H   H1572     1.0  0.61231  0.74316  0.78455  1.0000
  H   H1573     1.0  0.60270  0.74398  0.87400  1.0000
  O   O544      1.0  0.62482  0.73351  0.87996  1.0000
  H   H1574     1.0  0.62591  0.72922  0.90207  1.0000
  H   H1575     1.0  0.61189  0.81090  0.11377  1.0000
  O   O545      1.0  0.63344  0.80548  0.11873  1.0000
  H   H1576     1.0  0.63355  0.80552  0.14257  1.0000
  H   H1577     1.0  0.62328  0.77559  0.17883  1.0000
  O   O546      1.0  0.62965  0.79783  0.17579  1.0000
  H   H1578     1.0  0.63044  0.80770  0.19618  1.0000
  H   H1579     1.0  0.60431  0.80820  0.24412  1.0000
  O   O547      1.0  0.62515  0.81464  0.24019  1.0000
  H   H1580     1.0  0.63943  0.80306  0.25369  1.0000
  H   H1581     1.0  0.60320  0.81879  0.74924  1.0000
  O   O548      1.0  0.62489  0.82200  0.75235  1.0000
  H   H1582     1.0  0.63675  0.81343  0.73441  1.0000
  H   H1583     1.0  0.63081  0.77388  0.81109  1.0000
  O   O549      1.0  0.64127  0.79596  0.81184  1.0000
  H   H1584     1.0  0.63162  0.80832  0.79549  1.0000
  H   H1585     1.0  0.62492  0.80325  0.88088  1.0000
  O   O550      1.0  0.64358  0.80738  0.86987  1.0000
  H   H1586     1.0  0.64095  0.80384  0.84662  1.0000
  H   H1587     1.0  0.63523  0.87800  0.15624  1.0000
  O   O551      1.0  0.65263  0.87897  0.17004  1.0000
  H   H1588     1.0  0.64649  0.87499  0.19232  1.0000
  H   H1589     1.0  0.63436  0.84562  0.23299  1.0000
  O   O552      1.0  0.64335  0.86688  0.22753  1.0000
  H   H1590     1.0  0.63027  0.88257  0.23648  1.0000
  H   H1591     1.0  0.61898  0.86636  0.28914  1.0000
  O   O553      1.0  0.63762  0.86714  0.30118  1.0000
  H   H1592     1.0  0.63149  0.86771  0.32377  1.0000
  H   H1593     1.0  0.65086  0.85841  0.36430  1.0000
  O   O554      1.0  0.62971  0.86675  0.36007  1.0000
  H   H1594     1.0  0.62875  0.88711  0.36935  1.0000
  H   H1595     1.0  0.64356  0.85597  0.45132  1.0000
  O   O555      1.0  0.63409  0.87647  0.45010  1.0000
  H   H1596     1.0  0.61154  0.87229  0.44031  1.0000
  H   H1597     1.0  0.63482  0.88769  0.47824  1.0000
  O   O556      1.0  0.63892  0.89631  0.50242  1.0000
  H   H1598     1.0  0.63282  0.91772  0.50352  1.0000
  H   H1599     1.0  0.63281  0.85019  0.55426  1.0000
  O   O557      1.0  0.62045  0.86908  0.55241  1.0000
  H   H1600     1.0  0.62746  0.88051  0.53282  1.0000
  H   H1601     1.0  0.63510  0.88036  0.62280  1.0000
  O   O558      1.0  0.61591  0.87671  0.61230  1.0000
  H   H1602     1.0  0.61865  0.87712  0.58901  1.0000
  H   H1603     1.0  0.60315  0.87852  0.70391  1.0000
  O   O559      1.0  0.62223  0.89046  0.71025  1.0000
  H   H1604     1.0  0.62163  0.91071  0.70095  1.0000
  H   H1605     1.0  0.63724  0.85250  0.75860  1.0000
  O   O560      1.0  0.64581  0.87416  0.76005  1.0000
  H   H1606     1.0  0.63655  0.88474  0.74072  1.0000
  H   H1607     1.0  0.62895  0.87023  0.82626  1.0000
  O   O561      1.0  0.64588  0.88137  0.81740  1.0000
  H   H1608     1.0  0.64415  0.88141  0.79325  1.0000
  H   H1609     1.0  0.66230  0.12196  0.18080  1.0000
  O   O562      1.0  0.68284  0.11852  0.18993  1.0000
  H   H1610     1.0  0.70106  0.12422  0.17702  1.0000
  H   H1611     1.0  0.68733  0.12683  0.21920  1.0000
  O   O563      1.0  0.69448  0.13823  0.24012  1.0000
  H   H1612     1.0  0.71470  0.14968  0.23691  1.0000
  H   H1613     1.0  0.69382  0.13343  0.26570  1.0000
  O   O564      1.0  0.69884  0.13330  0.29462  1.0000
  H   H1614     1.0  0.68225  0.12999  0.31134  1.0000
  H   H1615     1.0  0.67665  0.13360  0.36068  1.0000
  O   O565      1.0  0.69224  0.13603  0.37789  1.0000
  H   H1616     1.0  0.70603  0.15476  0.37287  1.0000
  H   H1617     1.0  0.68971  0.13350  0.44897  1.0000
  O   O566      1.0  0.67578  0.13341  0.43006  1.0000
  H   H1618     1.0  0.68409  0.13386  0.40533  1.0000
  H   H1619     1.0  0.71732  0.11968  0.48669  1.0000
  O   O567      1.0  0.70388  0.13601  0.48017  1.0000
  H   H1620     1.0  0.71206  0.15669  0.48852  1.0000
  H   H1621     1.0  0.67943  0.14135  0.53991  1.0000
  O   O568      1.0  0.66897  0.12845  0.55498  1.0000
  H   H1622     1.0  0.68164  0.12338  0.58327  1.0000
  H   H1623     1.0  0.66461  0.12562  0.62566  1.0000
  O   O569      1.0  0.68772  0.12095  0.60732  1.0000
  H   H1624     1.0  0.70251  0.10490  0.61091  1.0000
  H   H1625     1.0  0.70081  0.13442  0.71050  1.0000
  O   O570      1.0  0.71297  0.13806  0.69012  1.0000
  H   H1626     1.0  0.72877  0.12235  0.68869  1.0000
  H   H1627     1.0  0.68876  0.11176  0.75406  1.0000
  O   O571      1.0  0.69001  0.13094  0.74262  1.0000
  H   H1628     1.0  0.70606  0.14450  0.75319  1.0000
  H   H1629     1.0  0.67776  0.11504  0.81412  1.0000
  O   O572      1.0  0.69767  0.12285  0.82105  1.0000
  H   H1630     1.0  0.69337  0.13942  0.83662  1.0000
  H   H1631     1.0  0.66109  0.17830  0.12160  1.0000
  O   O573      1.0  0.68293  0.17532  0.13242  1.0000
  H   H1632     1.0  0.69964  0.17877  0.11838  1.0000
  H   H1633     1.0  0.68466  0.18364  0.16139  1.0000
  O   O574      1.0  0.68287  0.19253  0.18509  1.0000
  H   H1634     1.0  0.68933  0.17757  0.20058  1.0000
  H   H1635     1.0  0.69121  0.18381  0.83654  1.0000
  O   O575      1.0  0.68998  0.19743  0.80725  1.0000
  H   H1636     1.0  0.70118  0.18381  0.79336  1.0000
  H   H1637     1.0  0.66903  0.17401  0.87183  1.0000
  O   O576      1.0  0.69225  0.17057  0.85728  1.0000
  H   H1638     1.0  0.71547  0.17076  0.86372  1.0000
  H   H1639     1.0  0.68301  0.28993  0.11976  1.0000
  O   O577      1.0  0.67818  0.26648  0.11993  1.0000
  H   H1640     1.0  0.69775  0.25546  0.12096  1.0000
  H   H1641     1.0  0.67612  0.28275  0.86684  1.0000
  O   O578      1.0  0.67620  0.25941  0.86248  1.0000
  H   H1642     1.0  0.69775  0.25303  0.86204  1.0000
  H   H1643     1.0  0.69184  0.34062  0.11393  1.0000
  O   O579      1.0  0.69690  0.31862  0.11998  1.0000
  H   H1644     1.0  0.71874  0.31497  0.12102  1.0000
  H   H1645     1.0  0.68521  0.33477  0.86929  1.0000
  O   O580      1.0  0.67388  0.31405  0.87863  1.0000
  H   H1646     1.0  0.67939  0.31256  0.90054  1.0000
  H   H1647     1.0  0.69133  0.39558  0.11322  1.0000
  O   O581      1.0  0.68226  0.37245  0.10369  1.0000
  H   H1648     1.0  0.68311  0.37205  0.08110  1.0000
  H   H1649     1.0  0.68154  0.37626  0.85629  1.0000
  O   O582      1.0  0.69673  0.36060  0.86005  1.0000
  H   H1650     1.0  0.71861  0.37046  0.86551  1.0000
  H   H1651     1.0  0.69373  0.42361  0.14449  1.0000
  O   O583      1.0  0.69913  0.41993  0.12274  1.0000
  H   H1652     1.0  0.72275  0.42819  0.11620  1.0000
  H   H1653     1.0  0.68732  0.47095  0.86574  1.0000
  O   O584      1.0  0.67823  0.44953  0.87496  1.0000
  H   H1654     1.0  0.69321  0.43802  0.88644  1.0000
  H   H1655     1.0  0.69695  0.52487  0.12655  1.0000
  O   O585      1.0  0.69226  0.49875  0.13716  1.0000
  H   H1656     1.0  0.69771  0.48382  0.12120  1.0000
  H   H1657     1.0  0.68890  0.51616  0.85827  1.0000
  O   O586      1.0  0.69904  0.49646  0.85502  1.0000
  H   H1658     1.0  0.72186  0.49979  0.86442  1.0000
  H   H1659     1.0  0.68724  0.56363  0.12880  1.0000
  O   O587      1.0  0.70095  0.54963  0.11818  1.0000
  H   H1660     1.0  0.72472  0.56177  0.11430  1.0000
  H   H1661     1.0  0.69211  0.58610  0.86837  1.0000
  O   O588      1.0  0.68289  0.56048  0.87522  1.0000
  H   H1662     1.0  0.68945  0.55444  0.89588  1.0000
  H   H1663     1.0  0.69015  0.64150  0.12390  1.0000
  O   O589      1.0  0.68986  0.61723  0.12482  1.0000
  H   H1664     1.0  0.70047  0.61014  0.10635  1.0000
  H   H1665     1.0  0.68399  0.62591  0.86621  1.0000
  O   O590      1.0  0.69971  0.61083  0.86291  1.0000
  H   H1666     1.0  0.72492  0.62099  0.86976  1.0000
  H   H1667     1.0  0.68284  0.68721  0.13378  1.0000
  O   O591      1.0  0.69319  0.67256  0.12046  1.0000
  H   H1668     1.0  0.71670  0.67635  0.12132  1.0000
  H   H1669     1.0  0.68678  0.71259  0.85685  1.0000
  O   O592      1.0  0.69924  0.68875  0.85758  1.0000
  H   H1670     1.0  0.70828  0.68543  0.87800  1.0000
  H   H1671     1.0  0.67533  0.74917  0.12030  1.0000
  O   O593      1.0  0.69719  0.75694  0.12411  1.0000
  H   H1672     1.0  0.69725  0.78041  0.12189  1.0000
  H   H1673     1.0  0.64990  0.73616  0.86675  1.0000
  O   O594      1.0  0.67362  0.73610  0.85766  1.0000
  H   H1674     1.0  0.68470  0.75456  0.86323  1.0000
  H   H1675     1.0  0.67132  0.81423  0.11137  1.0000
  O   O595      1.0  0.69328  0.81357  0.11661  1.0000
  H   H1676     1.0  0.69658  0.82855  0.13413  1.0000
  H   H1677     1.0  0.67959  0.78704  0.18858  1.0000
  O   O596      1.0  0.69693  0.79997  0.19281  1.0000
  H   H1678     1.0  0.69618  0.82043  0.18099  1.0000
  H   H1679     1.0  0.67318  0.79884  0.80050  1.0000
  O   O597      1.0  0.69417  0.80749  0.79525  1.0000
  H   H1680     1.0  0.69606  0.82781  0.80743  1.0000
  H   H1681     1.0  0.67917  0.80746  0.87694  1.0000
  O   O598      1.0  0.70134  0.80998  0.87236  1.0000
  H   H1682     1.0  0.70156  0.82646  0.85648  1.0000
  H   H1683     1.0  0.68062  0.86362  0.16564  1.0000
  O   O599      1.0  0.69930  0.84944  0.16476  1.0000
  H   H1684     1.0  0.71887  0.86041  0.16639  1.0000
  H   H1685     1.0  0.67725  0.86808  0.23493  1.0000
  O   O600      1.0  0.69886  0.86657  0.24271  1.0000
  H   H1686     1.0  0.69814  0.85816  0.26371  1.0000
  H   H1687     1.0  0.67083  0.87001  0.30133  1.0000
  O   O601      1.0  0.69225  0.86921  0.31034  1.0000
  H   H1688     1.0  0.68992  0.86536  0.33323  1.0000
  H   H1689     1.0  0.70206  0.83741  0.36616  1.0000
  O   O602      1.0  0.68534  0.85435  0.36781  1.0000
  H   H1690     1.0  0.69046  0.86712  0.38600  1.0000
  H   H1691     1.0  0.69101  0.86028  0.43620  1.0000
  O   O603      1.0  0.69430  0.88136  0.42750  1.0000
  H   H1692     1.0  0.67619  0.89305  0.43338  1.0000
  H   H1693     1.0  0.69123  0.86051  0.49639  1.0000
  O   O604      1.0  0.69424  0.88126  0.50503  1.0000
  H   H1694     1.0  0.67288  0.89082  0.50407  1.0000
  H   H1695     1.0  0.69804  0.85516  0.56543  1.0000
  O   O605      1.0  0.70590  0.87633  0.56234  1.0000
  H   H1696     1.0  0.70118  0.88092  0.53936  1.0000
  H   H1697     1.0  0.67992  0.85353  0.61901  1.0000
  O   O606      1.0  0.68739  0.87395  0.62481  1.0000
  H   H1698     1.0  0.69488  0.88329  0.60533  1.0000
  H   H1699     1.0  0.69540  0.84887  0.68640  1.0000
  O   O607      1.0  0.70597  0.86899  0.68243  1.0000
  H   H1700     1.0  0.69920  0.87554  0.66118  1.0000
  H   H1701     1.0  0.67848  0.87157  0.75583  1.0000
  O   O608      1.0  0.70069  0.86961  0.74861  1.0000
  H   H1702     1.0  0.70060  0.87336  0.72614  1.0000
  H   H1703     1.0  0.67468  0.86727  0.82501  1.0000
  O   O609      1.0  0.69452  0.85448  0.82749  1.0000
  H   H1704     1.0  0.71244  0.86741  0.82631  1.0000
  H   H1705     1.0  0.74570  0.15372  0.17625  1.0000
  O   O610      1.0  0.73607  0.13328  0.16987  1.0000
  H   H1706     1.0  0.74937  0.11687  0.17656  1.0000
  H   H1707     1.0  0.76447  0.14630  0.25187  1.0000
  O   O611      1.0  0.78476  0.13604  0.25726  1.0000
  H   H1708     1.0  0.80024  0.15373  0.25385  1.0000
  H   H1709     1.0  0.76069  0.14894  0.31028  1.0000
  O   O612      1.0  0.77570  0.12337  0.30504  1.0000
  H   H1710     1.0  0.79784  0.12204  0.30660  1.0000
  H   H1711     1.0  0.75797  0.12211  0.37878  1.0000
  O   O613      1.0  0.77998  0.12596  0.38002  1.0000
  H   H1712     1.0  0.79165  0.15669  0.37645  1.0000
  H   H1713     1.0  0.76417  0.14978  0.43169  1.0000
  O   O614      1.0  0.77444  0.12673  0.43196  1.0000
  H   H1714     1.0  0.79620  0.12901  0.42859  1.0000
  H   H1715     1.0  0.78102  0.11684  0.48609  1.0000
  O   O615      1.0  0.78925  0.12584  0.50502  1.0000
  H   H1716     1.0  0.80245  0.14942  0.50267  1.0000
  H   H1717     1.0  0.75598  0.14386  0.55510  1.0000
  O   O616      1.0  0.76154  0.12131  0.55244  1.0000
  H   H1718     1.0  0.77775  0.12134  0.52831  1.0000
  H   H1719     1.0  0.76084  0.14490  0.60710  1.0000
  O   O617      1.0  0.78019  0.13334  0.60248  1.0000
  H   H1720     1.0  0.79722  0.14976  0.60418  1.0000
  H   H1721     1.0  0.76783  0.15366  0.67852  1.0000
  O   O618      1.0  0.77416  0.13157  0.68395  1.0000
  H   H1722     1.0  0.79523  0.12732  0.67897  1.0000
  H   H1723     1.0  0.75144  0.14976  0.74583  1.0000
  O   O619      1.0  0.77339  0.13357  0.73759  1.0000
  H   H1724     1.0  0.79245  0.14997  0.73837  1.0000
  H   H1725     1.0  0.73004  0.11560  0.82850  1.0000
  O   O620      1.0  0.75154  0.11805  0.83691  1.0000
  H   H1726     1.0  0.76628  0.11184  0.82147  1.0000
  H   H1727     1.0  0.75371  0.16512  0.10843  1.0000
  O   O621      1.0  0.76148  0.18501  0.11515  1.0000
  H   H1728     1.0  0.76168  0.18401  0.13804  1.0000
  H   H1729     1.0  0.74690  0.20368  0.18368  1.0000
  O   O622      1.0  0.75917  0.18302  0.18740  1.0000
  H   H1730     1.0  0.78309  0.18839  0.18379  1.0000
  H   H1731     1.0  0.73410  0.18601  0.24896  1.0000
  O   O623      1.0  0.74089  0.16795  0.23744  1.0000
  H   H1732     1.0  0.75068  0.17508  0.21474  1.0000
  H   H1733     1.0  0.71574  0.14682  0.30113  1.0000
  O   O624      1.0  0.74548  0.16806  0.31245  1.0000
  H   H1734     1.0  0.75512  0.18622  0.30390  1.0000
  H   H1735     1.0  0.73562  0.19159  0.37627  1.0000
  O   O625      1.0  0.72230  0.18027  0.36247  1.0000
  H   H1736     1.0  0.73313  0.17562  0.34139  1.0000
  H   H1737     1.0  0.73335  0.18366  0.43369  1.0000
  O   O626      1.0  0.75445  0.17756  0.43241  1.0000
  H   H1738     1.0  0.76945  0.19595  0.43119  1.0000
  H   H1739     1.0  0.73457  0.20144  0.49149  1.0000
  O   O627      1.0  0.72236  0.18533  0.50247  1.0000
  H   H1740     1.0  0.73009  0.18411  0.52422  1.0000
  H   H1741     1.0  0.74251  0.18175  0.58002  1.0000
  O   O628      1.0  0.75015  0.18040  0.55769  1.0000
  H   H1742     1.0  0.76925  0.19153  0.55645  1.0000
  H   H1743     1.0  0.71620  0.15939  0.61410  1.0000
  O   O629      1.0  0.73576  0.17004  0.61490  1.0000
  H   H1744     1.0  0.73991  0.17644  0.63756  1.0000
  H   H1745     1.0  0.72772  0.16330  0.68167  1.0000
  O   O630      1.0  0.74531  0.17807  0.67230  1.0000
  H   H1746     1.0  0.74565  0.19836  0.68172  1.0000
  H   H1747     1.0  0.72806  0.18204  0.74334  1.0000
  O   O631      1.0  0.73366  0.16529  0.75738  1.0000
  H   H1748     1.0  0.74893  0.17655  0.78399  1.0000
  H   H1749     1.0  0.75046  0.20934  0.80419  1.0000
  O   O632      1.0  0.75947  0.18765  0.80255  1.0000
  H   H1750     1.0  0.78858  0.18934  0.80382  1.0000
  H   H1751     1.0  0.75150  0.14690  0.85588  1.0000
  O   O633      1.0  0.74717  0.16951  0.86089  1.0000
  H   H1752     1.0  0.75229  0.17898  0.84032  1.0000
  H   H1753     1.0  0.74435  0.27043  0.11615  1.0000
  O   O634      1.0  0.73605  0.24936  0.12246  1.0000
  H   H1754     1.0  0.74661  0.23293  0.11149  1.0000
  H   H1755     1.0  0.70821  0.22104  0.18330  1.0000
  O   O635      1.0  0.72908  0.22951  0.17988  1.0000
  H   H1756     1.0  0.73075  0.23988  0.15901  1.0000
  H   H1757     1.0  0.72924  0.23313  0.30839  1.0000
  O   O636      1.0  0.74778  0.23967  0.31954  1.0000
  H   H1758     1.0  0.75822  0.25531  0.30697  1.0000
  H   H1759     1.0  0.74837  0.24342  0.35151  1.0000
  O   O637      1.0  0.75242  0.24692  0.37505  1.0000
  H   H1760     1.0  0.77542  0.24602  0.37910  1.0000
  H   H1761     1.0  0.74141  0.24988  0.48374  1.0000
  O   O638      1.0  0.75482  0.23224  0.48017  1.0000
  H   H1762     1.0  0.77479  0.23549  0.49273  1.0000
  H   H1763     1.0  0.74166  0.24848  0.63125  1.0000
  O   O639      1.0  0.74784  0.24200  0.61040  1.0000
  H   H1764     1.0  0.77092  0.23885  0.61132  1.0000
  H   H1765     1.0  0.74433  0.25034  0.77924  1.0000
  O   O640      1.0  0.75435  0.25784  0.75813  1.0000
  H   H1766     1.0  0.76033  0.28019  0.76018  1.0000
  H   H1767     1.0  0.71292  0.22685  0.80639  1.0000
  O   O641      1.0  0.73358  0.23707  0.80753  1.0000
  H   H1768     1.0  0.73671  0.24526  0.83090  1.0000
  H   H1769     1.0  0.74704  0.27329  0.87149  1.0000
  O   O642      1.0  0.73829  0.25130  0.86228  1.0000
  H   H1770     1.0  0.74576  0.23374  0.87394  1.0000
  H   H1771     1.0  0.75866  0.32354  0.10350  1.0000
  O   O643      1.0  0.75727  0.30170  0.11258  1.0000
  H   H1772     1.0  0.77666  0.29987  0.12370  1.0000
  H   H1773     1.0  0.73319  0.30984  0.18612  1.0000
  O   O644      1.0  0.75220  0.32089  0.18247  1.0000
  H   H1774     1.0  0.74838  0.33995  0.17092  1.0000
  H   H1775     1.0  0.73959  0.32465  0.76107  1.0000
  O   O645      1.0  0.75909  0.31609  0.75514  1.0000
  H   H1776     1.0  0.77282  0.33453  0.75310  1.0000
  H   H1777     1.0  0.72452  0.30723  0.81408  1.0000
  O   O646      1.0  0.74317  0.31649  0.82245  1.0000
  H   H1778     1.0  0.74417  0.33940  0.81429  1.0000
  H   H1779     1.0  0.74811  0.31087  0.85684  1.0000
  O   O647      1.0  0.75472  0.30125  0.87743  1.0000
  H   H1780     1.0  0.77693  0.30698  0.88028  1.0000
  H   H1781     1.0  0.75201  0.36864  0.11599  1.0000
  O   O648      1.0  0.76378  0.35805  0.10014  1.0000
  H   H1782     1.0  0.78550  0.36696  0.10126  1.0000
  H   H1783     1.0  0.74355  0.37877  0.19192  1.0000
  O   O649      1.0  0.75228  0.38045  0.17006  1.0000
  H   H1784     1.0  0.74928  0.40164  0.16322  1.0000
  H   H1785     1.0  0.71483  0.37181  0.23628  1.0000
  O   O650      1.0  0.73394  0.37000  0.22508  1.0000
  H   H1786     1.0  0.74449  0.35216  0.23385  1.0000
  H   H1787     1.0  0.73138  0.38329  0.79907  1.0000
  O   O651      1.0  0.74766  0.36794  0.80008  1.0000
  H   H1788     1.0  0.76760  0.37887  0.80130  1.0000
  H   H1789     1.0  0.75362  0.40575  0.87154  1.0000
  O   O652      1.0  0.74535  0.38260  0.87260  1.0000
  H   H1790     1.0  0.75899  0.36914  0.88370  1.0000
  H   H1791     1.0  0.75760  0.46018  0.11194  1.0000
  O   O653      1.0  0.74810  0.43631  0.10930  1.0000
  H   H1792     1.0  0.75995  0.42304  0.09602  1.0000
  H   H1793     1.0  0.74275  0.43884  0.20319  1.0000
  O   O654      1.0  0.75679  0.44690  0.18774  1.0000
  H   H1794     1.0  0.74874  0.46826  0.18030  1.0000
  H   H1795     1.0  0.75401  0.44628  0.85351  1.0000
  O   O655      1.0  0.76388  0.43461  0.86986  1.0000
  H   H1796     1.0  0.78769  0.43962  0.86980  1.0000
  H   H1797     1.0  0.75645  0.49265  0.13859  1.0000
  O   O656      1.0  0.76614  0.48643  0.11768  1.0000
  H   H1798     1.0  0.78834  0.49178  0.11577  1.0000
  H   H1799     1.0  0.71640  0.49737  0.15695  1.0000
  O   O657      1.0  0.73853  0.49652  0.16742  1.0000
  H   H1800     1.0  0.74423  0.51696  0.17640  1.0000
  H   H1801     1.0  0.75549  0.48510  0.24610  1.0000
  O   O658      1.0  0.77086  0.49894  0.23760  1.0000
  H   H1802     1.0  0.76706  0.51950  0.24672  1.0000
  H   H1803     1.0  0.73689  0.49236  0.77637  1.0000
  O   O659      1.0  0.74987  0.49135  0.79492  1.0000
  H   H1804     1.0  0.73696  0.49519  0.81302  1.0000
  H   H1805     1.0  0.75729  0.52915  0.87117  1.0000
  O   O660      1.0  0.74780  0.50618  0.87506  1.0000
  H   H1806     1.0  0.75939  0.49278  0.88844  1.0000
  H   H1807     1.0  0.75727  0.59890  0.10706  1.0000
  O   O661      1.0  0.74831  0.57425  0.11201  1.0000
  H   H1808     1.0  0.76499  0.55986  0.11340  1.0000
  H   H1809     1.0  0.74140  0.54999  0.20866  1.0000
  O   O662      1.0  0.75446  0.55061  0.19032  1.0000
  H   H1810     1.0  0.75151  0.57239  0.18106  1.0000
  H   H1811     1.0  0.75863  0.56645  0.84788  1.0000
  O   O663      1.0  0.76842  0.55564  0.86489  1.0000
  H   H1812     1.0  0.79300  0.55439  0.86300  1.0000
  H   H1813     1.0  0.76072  0.64332  0.10890  1.0000
  O   O664      1.0  0.76972  0.62317  0.10329  1.0000
  H   H1814     1.0  0.79417  0.62346  0.10562  1.0000
  H   H1815     1.0  0.74644  0.61759  0.19426  1.0000
  O   O665      1.0  0.75193  0.60510  0.17471  1.0000
  H   H1816     1.0  0.73725  0.60926  0.15822  1.0000
  H   H1817     1.0  0.72424  0.63097  0.23776  1.0000
  O   O666      1.0  0.74077  0.63481  0.22281  1.0000
  H   H1818     1.0  0.75432  0.64972  0.23266  1.0000
  H   H1819     1.0  0.73967  0.63125  0.77592  1.0000
  O   O667      1.0  0.75446  0.64664  0.78254  1.0000
  H   H1820     1.0  0.74469  0.66582  0.80444  1.0000
  H   H1821     1.0  0.75897  0.65450  0.88384  1.0000
  O   O668      1.0  0.74784  0.62934  0.87763  1.0000
  H   H1822     1.0  0.75940  0.61228  0.88588  1.0000
  H   H1823     1.0  0.75159  0.68013  0.14929  1.0000
  O   O669      1.0  0.74769  0.67909  0.12478  1.0000
  H   H1824     1.0  0.75171  0.69992  0.11653  1.0000
  H   H1825     1.0  0.73697  0.67572  0.19172  1.0000
  O   O670      1.0  0.75401  0.68491  0.18086  1.0000
  H   H1826     1.0  0.75151  0.71245  0.18084  1.0000
  H   H1827     1.0  0.75728  0.66411  0.76493  1.0000
  O   O671      1.0  0.76170  0.68914  0.74752  1.0000
  H   H1828     1.0  0.76211  0.70856  0.75911  1.0000
  H   H1829     1.0  0.71752  0.68505  0.83904  1.0000
  O   O672      1.0  0.73838  0.68413  0.82011  1.0000
  H   H1830     1.0  0.74352  0.70504  0.81364  1.0000
  H   H1831     1.0  0.76157  0.69756  0.88530  1.0000
  O   O673      1.0  0.77102  0.67665  0.88987  1.0000
  H   H1832     1.0  0.79536  0.67785  0.88744  1.0000
  H   H1833     1.0  0.72138  0.74607  0.11975  1.0000
  O   O674      1.0  0.74764  0.74093  0.11999  1.0000
  H   H1834     1.0  0.75585  0.76139  0.11347  1.0000
  H   H1835     1.0  0.73286  0.74906  0.18420  1.0000
  O   O675      1.0  0.74995  0.73837  0.17506  1.0000
  H   H1836     1.0  0.75017  0.74034  0.14755  1.0000
  H   H1837     1.0  0.75805  0.73237  0.32339  1.0000
  O   O676      1.0  0.75924  0.75048  0.33719  1.0000
  H   H1838     1.0  0.75785  0.76881  0.32414  1.0000
  H   H1839     1.0  0.71117  0.74941  0.38082  1.0000
  O   O677      1.0  0.73131  0.75562  0.38752  1.0000
  H   H1840     1.0  0.74458  0.75135  0.36867  1.0000
  H   H1841     1.0  0.75543  0.73993  0.51141  1.0000
  O   O678      1.0  0.76858  0.75804  0.51243  1.0000
  H   H1842     1.0  0.75736  0.77565  0.50113  1.0000
  H   H1843     1.0  0.75145  0.74246  0.62334  1.0000
  O   O679      1.0  0.74323  0.75298  0.60508  1.0000
  H   H1844     1.0  0.73763  0.77546  0.61189  1.0000
  H   H1845     1.0  0.71961  0.73933  0.76398  1.0000
  O   O680      1.0  0.73597  0.74570  0.75007  1.0000
  H   H1846     1.0  0.73494  0.77060  0.75030  1.0000
  H   H1847     1.0  0.71673  0.75474  0.82094  1.0000
  O   O681      1.0  0.73833  0.75069  0.82262  1.0000
  H   H1848     1.0  0.74898  0.77092  0.81713  1.0000
  H   H1849     1.0  0.74635  0.73714  0.85589  1.0000
  O   O682      1.0  0.75005  0.72868  0.87757  1.0000
  H   H1850     1.0  0.75518  0.74611  0.89086  1.0000
  H   H1851     1.0  0.74004  0.80863  0.10591  1.0000
  O   O683      1.0  0.75930  0.79999  0.11283  1.0000
  H   H1852     1.0  0.76235  0.80624  0.13535  1.0000
  H   H1853     1.0  0.75995  0.81079  0.18902  1.0000
  O   O684      1.0  0.77083  0.81734  0.16998  1.0000
  H   H1854     1.0  0.76756  0.84081  0.16923  1.0000
  H   H1855     1.0  0.72141  0.80300  0.21418  1.0000
  O   O685      1.0  0.74070  0.81221  0.22494  1.0000
  H   H1856     1.0  0.73509  0.83304  0.23085  1.0000
  H   H1857     1.0  0.73375  0.80334  0.29641  1.0000
  O   O686      1.0  0.74961  0.81248  0.30978  1.0000
  H   H1858     1.0  0.74924  0.83800  0.30402  1.0000
  H   H1859     1.0  0.73131  0.80135  0.37631  1.0000
  O   O687      1.0  0.72910  0.81940  0.36254  1.0000
  H   H1860     1.0  0.73718  0.81422  0.33960  1.0000
  H   H1861     1.0  0.75174  0.81533  0.44834  1.0000
  O   O688      1.0  0.76153  0.82479  0.43015  1.0000
  H   H1862     1.0  0.75772  0.84763  0.42952  1.0000
  H   H1863     1.0  0.72151  0.80144  0.48396  1.0000
  O   O689      1.0  0.74306  0.80268  0.48990  1.0000
  H   H1864     1.0  0.74735  0.82366  0.49856  1.0000
  H   H1865     1.0  0.77417  0.77604  0.54059  1.0000
  O   O690      1.0  0.77773  0.79223  0.55767  1.0000
  H   H1866     1.0  0.76857  0.78384  0.57661  1.0000
  H   H1867     1.0  0.71256  0.80939  0.60852  1.0000
  O   O691      1.0  0.73120  0.80503  0.61986  1.0000
  H   H1868     1.0  0.74410  0.82516  0.62136  1.0000
  H   H1869     1.0  0.74647  0.80410  0.67383  1.0000
  O   O692      1.0  0.76383  0.81229  0.68494  1.0000
  H   H1870     1.0  0.76188  0.83486  0.69119  1.0000
  H   H1871     1.0  0.71104  0.80358  0.77421  1.0000
  O   O693      1.0  0.73154  0.80004  0.75729  1.0000
  H   H1872     1.0  0.72987  0.81332  0.73916  1.0000
  H   H1873     1.0  0.75386  0.80086  0.78355  1.0000
  O   O694      1.0  0.76392  0.80029  0.80503  1.0000
  H   H1874     1.0  0.76192  0.82329  0.81358  1.0000
  H   H1875     1.0  0.73236  0.80239  0.88399  1.0000
  O   O695      1.0  0.75407  0.79958  0.89235  1.0000
  H   H1876     1.0  0.75583  0.81322  0.91011  1.0000
  H   H1877     1.0  0.76500  0.88797  0.15909  1.0000
  O   O696      1.0  0.75694  0.87188  0.17226  1.0000
  H   H1878     1.0  0.75508  0.87898  0.19588  1.0000
  H   H1879     1.0  0.72606  0.87948  0.23307  1.0000
  O   O697      1.0  0.74799  0.88426  0.22577  1.0000
  H   H1880     1.0  0.76107  0.88805  0.24347  1.0000
  H   H1881     1.0  0.72102  0.87029  0.30333  1.0000
  O   O698      1.0  0.74530  0.86658  0.30014  1.0000
  H   H1882     1.0  0.75688  0.87744  0.31615  1.0000
  H   H1883     1.0  0.75246  0.84547  0.36660  1.0000
  O   O699      1.0  0.76857  0.86183  0.36519  1.0000
  H   H1884     1.0  0.76617  0.87475  0.38365  1.0000
  H   H1885     1.0  0.72756  0.88562  0.42789  1.0000
  O   O700      1.0  0.75019  0.88178  0.42756  1.0000
  H   H1886     1.0  0.76102  0.90016  0.43362  1.0000
  H   H1887     1.0  0.73722  0.87371  0.50132  1.0000
  O   O701      1.0  0.75450  0.85944  0.50250  1.0000
  H   H1888     1.0  0.77160  0.86792  0.49111  1.0000
  H   H1889     1.0  0.73669  0.88025  0.56865  1.0000
  O   O702      1.0  0.75940  0.88138  0.57490  1.0000
  H   H1890     1.0  0.77171  0.87526  0.55722  1.0000
  H   H1891     1.0  0.75586  0.86524  0.64107  1.0000
  O   O703      1.0  0.75957  0.85237  0.62304  1.0000
  H   H1892     1.0  0.76164  0.86571  0.60248  1.0000
  H   H1893     1.0  0.73672  0.87065  0.69292  1.0000
  O   O704      1.0  0.75898  0.86687  0.69986  1.0000
  H   H1894     1.0  0.77238  0.88284  0.69234  1.0000
  H   H1895     1.0  0.72751  0.87725  0.76209  1.0000
  O   O705      1.0  0.74997  0.88141  0.76991  1.0000
  H   H1896     1.0  0.76298  0.88010  0.75168  1.0000
  H   H1897     1.0  0.77450  0.86511  0.83202  1.0000
  O   O706      1.0  0.76158  0.85446  0.81741  1.0000
  H   H1898     1.0  0.75769  0.86741  0.79639  1.0000
  H   H1899     1.0  0.81280  0.18174  0.11146  1.0000
  O   O707      1.0  0.82857  0.19007  0.12483  1.0000
  H   H1900     1.0  0.83483  0.21176  0.11639  1.0000
  H   H1901     1.0  0.81180  0.22018  0.18105  1.0000
  O   O708      1.0  0.81022  0.19772  0.17749  1.0000
  H   H1902     1.0  0.81911  0.19282  0.15500  1.0000
  H   H1903     1.0  0.80837  0.20165  0.24345  1.0000
  O   O709      1.0  0.81716  0.18038  0.24240  1.0000
  H   H1904     1.0  0.82472  0.17867  0.22098  1.0000
  H   H1905     1.0  0.81400  0.21672  0.31003  1.0000
  O   O710      1.0  0.81475  0.19392  0.32400  1.0000
  H   H1906     1.0  0.82749  0.17907  0.31355  1.0000
  H   H1907     1.0  0.80921  0.18709  0.34941  1.0000
  O   O711      1.0  0.80327  0.17755  0.37506  1.0000
  H   H1908     1.0  0.81728  0.17933  0.39354  1.0000
  H   H1909     1.0  0.81628  0.19794  0.43635  1.0000
  O   O712      1.0  0.83107  0.18264  0.42756  1.0000
  H   H1910     1.0  0.84146  0.17181  0.44409  1.0000
  H   H1911     1.0  0.80312  0.18960  0.49345  1.0000
  O   O713      1.0  0.81481  0.17297  0.50252  1.0000
  H   H1912     1.0  0.82414  0.18120  0.52631  1.0000
  H   H1913     1.0  0.83160  0.17926  0.57050  1.0000
  O   O714      1.0  0.83146  0.19148  0.55128  1.0000
  H   H1914     1.0  0.84318  0.21320  0.55383  1.0000
  H   H1915     1.0  0.80740  0.19657  0.60629  1.0000
  O   O715      1.0  0.81667  0.17650  0.61118  1.0000
  H   H1916     1.0  0.82470  0.17978  0.63365  1.0000
  H   H1917     1.0  0.82735  0.17837  0.68410  1.0000
  O   O716      1.0  0.83174  0.19082  0.66588  1.0000
  H   H1918     1.0  0.84244  0.21018  0.67425  1.0000
  H   H1919     1.0  0.80519  0.19551  0.73909  1.0000
  O   O717      1.0  0.81253  0.17268  0.74270  1.0000
  H   H1920     1.0  0.82185  0.17228  0.76340  1.0000
  H   H1921     1.0  0.81798  0.21800  0.80333  1.0000
  O   O718      1.0  0.81291  0.19356  0.80693  1.0000
  H   H1922     1.0  0.81905  0.18886  0.83022  1.0000
  H   H1923     1.0  0.81556  0.17599  0.87630  1.0000
  O   O719      1.0  0.82599  0.18904  0.86151  1.0000
  H   H1924     1.0  0.82883  0.21101  0.87034  1.0000
  H   H1925     1.0  0.82768  0.25750  0.10397  1.0000
  O   O720      1.0  0.84257  0.24219  0.11002  1.0000
  H   H1926     1.0  0.85496  0.25119  0.12842  1.0000
  H   H1927     1.0  0.81338  0.27962  0.19049  1.0000
  O   O721      1.0  0.81949  0.25678  0.19010  1.0000
  H   H1928     1.0  0.84031  0.25615  0.18107  1.0000
  H   H1929     1.0  0.77834  0.24542  0.23881  1.0000
  O   O722      1.0  0.79877  0.23714  0.23981  1.0000
  H   H1930     1.0  0.81043  0.24555  0.21987  1.0000
  H   H1931     1.0  0.81077  0.24034  0.27201  1.0000
  O   O723      1.0  0.81729  0.23956  0.29495  1.0000
  H   H1932     1.0  0.83913  0.24667  0.29880  1.0000
  H   H1933     1.0  0.80489  0.27055  0.39895  1.0000
  O   O724      1.0  0.80581  0.24963  0.38983  1.0000
  H   H1934     1.0  0.82759  0.24841  0.37808  1.0000
  H   H1935     1.0  0.77637  0.23060  0.45111  1.0000
  O   O725      1.0  0.78926  0.21984  0.43515  1.0000
  H   H1936     1.0  0.79676  0.23240  0.41625  1.0000
  H   H1937     1.0  0.79928  0.25542  0.52349  1.0000
  O   O726      1.0  0.80315  0.23971  0.50757  1.0000
  H   H1938     1.0  0.82525  0.24196  0.50078  1.0000
  H   H1939     1.0  0.80173  0.25566  0.59091  1.0000
  O   O727      1.0  0.80381  0.23881  0.60610  1.0000
  H   H1940     1.0  0.82534  0.24115  0.61435  1.0000
  H   H1941     1.0  0.77941  0.23727  0.74532  1.0000
  O   O728      1.0  0.79617  0.22488  0.73493  1.0000
  H   H1942     1.0  0.80249  0.23559  0.71606  1.0000
  H   H1943     1.0  0.80878  0.26415  0.80388  1.0000
  O   O729      1.0  0.82418  0.24691  0.80252  1.0000
  H   H1944     1.0  0.84247  0.25384  0.81437  1.0000
  H   H1945     1.0  0.82375  0.25545  0.89325  1.0000
  O   O730      1.0  0.83331  0.24248  0.87774  1.0000
  H   H1946     1.0  0.84583  0.25557  0.86278  1.0000
  H   H1947     1.0  0.82063  0.32413  0.10628  1.0000
  O   O731      1.0  0.81727  0.30872  0.12242  1.0000
  H   H1948     1.0  0.83450  0.30967  0.13657  1.0000
  H   H1949     1.0  0.78255  0.31367  0.19169  1.0000
  O   O732      1.0  0.80549  0.31140  0.19499  1.0000
  H   H1950     1.0  0.81416  0.33019  0.18653  1.0000
  H   H1951     1.0  0.81578  0.29804  0.74072  1.0000
  O   O733      1.0  0.82858  0.31612  0.74245  1.0000
  H   H1952     1.0  0.81583  0.33646  0.74571  1.0000
  H   H1953     1.0  0.77238  0.30156  0.81338  1.0000
  O   O734      1.0  0.79382  0.29422  0.80767  1.0000
  H   H1954     1.0  0.80220  0.30910  0.79324  1.0000
  H   H1955     1.0  0.81836  0.33773  0.87505  1.0000
  O   O735      1.0  0.81014  0.31596  0.87475  1.0000
  H   H1956     1.0  0.81400  0.30756  0.85400  1.0000
  H   H1957     1.0  0.81871  0.40350  0.10691  1.0000
  O   O736      1.0  0.81497  0.38038  0.10506  1.0000
  H   H1958     1.0  0.83036  0.37130  0.11879  1.0000
  H   H1959     1.0  0.78842  0.37603  0.17343  1.0000
  O   O737      1.0  0.81014  0.37797  0.18006  1.0000
  H   H1960     1.0  0.81140  0.39963  0.18900  1.0000
  H   H1961     1.0  0.80715  0.34989  0.26353  1.0000
  O   O738      1.0  0.81842  0.36923  0.26446  1.0000
  H   H1962     1.0  0.80344  0.38609  0.26315  1.0000
  H   H1963     1.0  0.79108  0.37508  0.73569  1.0000
  O   O739      1.0  0.79645  0.36053  0.75240  1.0000
  H   H1964     1.0  0.80013  0.37450  0.77297  1.0000
  H   H1965     1.0  0.79784  0.41912  0.79859  1.0000
  O   O740      1.0  0.80094  0.39280  0.79787  1.0000
  H   H1966     1.0  0.81231  0.38605  0.81607  1.0000
  H   H1967     1.0  0.82727  0.38876  0.88219  1.0000
  O   O741      1.0  0.83098  0.37042  0.86992  1.0000
  H   H1968     1.0  0.85150  0.37192  0.85932  1.0000
  H   H1969     1.0  0.82742  0.45432  0.10661  1.0000
  O   O742      1.0  0.82881  0.43469  0.11751  1.0000
  H   H1970     1.0  0.84615  0.43590  0.13294  1.0000
  H   H1971     1.0  0.78711  0.44052  0.19363  1.0000
  O   O743      1.0  0.81022  0.43458  0.19487  1.0000
  H   H1972     1.0  0.81955  0.44299  0.17617  1.0000
  H   H1973     1.0  0.80409  0.44383  0.32413  1.0000
  O   O744      1.0  0.81720  0.45666  0.33730  1.0000
  H   H1974     1.0  0.83306  0.46832  0.32135  1.0000
  H   H1975     1.0  0.77345  0.45537  0.79563  1.0000
  O   O745      1.0  0.79372  0.44700  0.79985  1.0000
  H   H1976     1.0  0.80622  0.46724  0.80659  1.0000
  H   H1977     1.0  0.82306  0.47030  0.87391  1.0000
  O   O746      1.0  0.81711  0.44669  0.86994  1.0000
  H   H1978     1.0  0.82974  0.43840  0.85339  1.0000
  H   H1979     1.0  0.82233  0.52198  0.10904  1.0000
  O   O747      1.0  0.82165  0.49953  0.11466  1.0000
  H   H1980     1.0  0.82884  0.49885  0.13626  1.0000
  H   H1981     1.0  0.80391  0.49744  0.19195  1.0000
  O   O748      1.0  0.82164  0.50860  0.18495  1.0000
  H   H1982     1.0  0.81910  0.53191  0.19054  1.0000
  H   H1983     1.0  0.80219  0.49081  0.24636  1.0000
  O   O749      1.0  0.82438  0.48875  0.25239  1.0000
  H   H1984     1.0  0.83781  0.48989  0.23445  1.0000
  H   H1985     1.0  0.79978  0.47293  0.72611  1.0000
  O   O750      1.0  0.81228  0.49131  0.72997  1.0000
  H   H1986     1.0  0.79893  0.50813  0.73612  1.0000
  H   H1987     1.0  0.80897  0.51452  0.80783  1.0000
  O   O751      1.0  0.81725  0.49404  0.81516  1.0000
  H   H1988     1.0  0.82556  0.49589  0.83659  1.0000
  H   H1989     1.0  0.82625  0.52475  0.87372  1.0000
  O   O752      1.0  0.83361  0.49880  0.87515  1.0000
  H   H1990     1.0  0.85278  0.49789  0.88603  1.0000
  H   H1991     1.0  0.82070  0.57613  0.10093  1.0000
  O   O753      1.0  0.81953  0.55828  0.11491  1.0000
  H   H1992     1.0  0.83061  0.56399  0.13377  1.0000
  H   H1993     1.0  0.78755  0.55671  0.19904  1.0000
  O   O754      1.0  0.81014  0.56055  0.20009  1.0000
  H   H1994     1.0  0.81374  0.58260  0.19470  1.0000
  H   H1995     1.0  0.79694  0.56940  0.32151  1.0000
  O   O755      1.0  0.81189  0.58008  0.33438  1.0000
  H   H1996     1.0  0.82835  0.59037  0.31956  1.0000
  H   H1997     1.0  0.77592  0.53937  0.78858  1.0000
  O   O756      1.0  0.79624  0.54553  0.79482  1.0000
  H   H1998     1.0  0.79570  0.56842  0.79933  1.0000
  H   H1999     1.0  0.83191  0.57960  0.87220  1.0000
  O   O757      1.0  0.82185  0.55059  0.86495  1.0000
  H   H2000     1.0  0.83531  0.54977  0.84610  1.0000
  H   H2001     1.0  0.83075  0.64862  0.10883  1.0000
  O   O758      1.0  0.82410  0.62483  0.10758  1.0000
  H   H2002     1.0  0.83665  0.61570  0.12409  1.0000
  H   H2003     1.0  0.78995  0.61331  0.17357  1.0000
  O   O759      1.0  0.81010  0.61756  0.18260  1.0000
  H   H2004     1.0  0.81008  0.64184  0.18708  1.0000
  H   H2005     1.0  0.80054  0.60617  0.25926  1.0000
  O   O760      1.0  0.81882  0.61903  0.25628  1.0000
  H   H2006     1.0  0.82058  0.62323  0.23399  1.0000
  H   H2007     1.0  0.80935  0.60935  0.72635  1.0000
  O   O761      1.0  0.82617  0.62406  0.72740  1.0000
  H   H2008     1.0  0.81871  0.64789  0.73083  1.0000
  H   H2009     1.0  0.78257  0.61891  0.79641  1.0000
  O   O762      1.0  0.79623  0.60282  0.80510  1.0000
  H   H2010     1.0  0.80595  0.61106  0.82371  1.0000
  H   H2011     1.0  0.83981  0.61393  0.88925  1.0000
  O   O763      1.0  0.84025  0.60241  0.86998  1.0000
  H   H2012     1.0  0.85914  0.61091  0.84573  1.0000
  H   H2013     1.0  0.83061  0.69829  0.11351  1.0000
  O   O764      1.0  0.84024  0.67667  0.11745  1.0000
  H   H2014     1.0  0.85532  0.67720  0.13391  1.0000
  H   H2015     1.0  0.78257  0.67630  0.19109  1.0000
  O   O765      1.0  0.80560  0.67164  0.19500  1.0000
  H   H2016     1.0  0.81576  0.69031  0.18594  1.0000
  H   H2017     1.0  0.78856  0.68276  0.73881  1.0000
  O   O766      1.0  0.81267  0.67652  0.73519  1.0000
  H   H2018     1.0  0.82348  0.68265  0.75399  1.0000
  H   H2019     1.0  0.78874  0.67753  0.82645  1.0000
  O   O767      1.0  0.80550  0.68169  0.81248  1.0000
  H   H2020     1.0  0.80726  0.70605  0.80696  1.0000
  H   H2021     1.0  0.83024  0.70667  0.88324  1.0000
  O   O768      1.0  0.82462  0.68295  0.88315  1.0000
  H   H2022     1.0  0.83656  0.67340  0.86660  1.0000
  H   H2023     1.0  0.79377  0.72210  0.10389  1.0000
  O   O769      1.0  0.81458  0.72582  0.10995  1.0000
  H   H2024     1.0  0.81868  0.74940  0.10626  1.0000
  H   H2025     1.0  0.81779  0.73761  0.19900  1.0000
  O   O770      1.0  0.82412  0.72586  0.17955  1.0000
  H   H2026     1.0  0.81505  0.73476  0.16086  1.0000
  H   H2027     1.0  0.79685  0.73454  0.24083  1.0000
  O   O771      1.0  0.81245  0.74832  0.23248  1.0000
  H   H2028     1.0  0.80502  0.77116  0.23605  1.0000
  H   H2029     1.0  0.80836  0.73439  0.29576  1.0000
  O   O772      1.0  0.82166  0.74809  0.30737  1.0000
  H   H2030     1.0  0.81431  0.77193  0.30558  1.0000
  H   H2031     1.0  0.82096  0.74466  0.34141  1.0000
  O   O773      1.0  0.82396  0.74565  0.36512  1.0000
  H   H2032     1.0  0.80872  0.75937  0.37338  1.0000
  H   H2033     1.0  0.80713  0.73685  0.42201  1.0000
  O   O774      1.0  0.81939  0.75058  0.43482  1.0000
  H   H2034     1.0  0.81567  0.77400  0.42903  1.0000
  H   H2035     1.0  0.80310  0.74236  0.50140  1.0000
  O   O775      1.0  0.82155  0.73585  0.49000  1.0000
  H   H2036     1.0  0.81882  0.74169  0.46660  1.0000
  H   H2037     1.0  0.81103  0.73507  0.61609  1.0000
  O   O776      1.0  0.82640  0.75073  0.61256  1.0000
  H   H2038     1.0  0.81851  0.77224  0.61818  1.0000
  H   H2039     1.0  0.81235  0.73717  0.72499  1.0000
  O   O777      1.0  0.82403  0.74566  0.74233  1.0000
  H   H2040     1.0  0.82121  0.77051  0.74336  1.0000
  H   H2041     1.0  0.81564  0.73716  0.77449  1.0000
  O   O778      1.0  0.81241  0.73344  0.79753  1.0000
  H   H2042     1.0  0.81397  0.75343  0.80923  1.0000
  H   H2043     1.0  0.82358  0.75618  0.88123  1.0000
  O   O779      1.0  0.83874  0.73689  0.88091  1.0000
  H   H2044     1.0  0.85598  0.74185  0.89390  1.0000
  H   H2045     1.0  0.79967  0.79112  0.10091  1.0000
  O   O780      1.0  0.81899  0.78123  0.10623  1.0000
  H   H2046     1.0  0.82351  0.78700  0.12894  1.0000
  H   H2047     1.0  0.80187  0.80353  0.16816  1.0000
  O   O781      1.0  0.82170  0.79276  0.16264  1.0000
  H   H2048     1.0  0.83692  0.79624  0.17845  1.0000
  H   H2049     1.0  0.77174  0.80430  0.23660  1.0000
  O   O782      1.0  0.79380  0.79997  0.24252  1.0000
  H   H2050     1.0  0.79977  0.80839  0.26273  1.0000
  H   H2051     1.0  0.78291  0.80397  0.30677  1.0000
  O   O783      1.0  0.80544  0.80015  0.30762  1.0000
  H   H2052     1.0  0.81216  0.80936  0.32874  1.0000
  H   H2053     1.0  0.79760  0.83993  0.36292  1.0000
  O   O784      1.0  0.81238  0.82248  0.36018  1.0000
  H   H2054     1.0  0.81977  0.81600  0.38069  1.0000
  H   H2055     1.0  0.79023  0.81331  0.42576  1.0000
  O   O785      1.0  0.81256  0.80499  0.42507  1.0000
  H   H2056     1.0  0.82248  0.81367  0.44357  1.0000
  H   H2057     1.0  0.80153  0.80337  0.49638  1.0000
  O   O786      1.0  0.81957  0.81463  0.49006  1.0000
  H   H2058     1.0  0.83672  0.80186  0.49636  1.0000
  H   H2059     1.0  0.80673  0.80395  0.56020  1.0000
  O   O787      1.0  0.82864  0.81237  0.56502  1.0000
  H   H2060     1.0  0.83249  0.83098  0.55333  1.0000
  H   H2061     1.0  0.79802  0.81834  0.62592  1.0000
  O   O788      1.0  0.81588  0.80589  0.62143  1.0000
  H   H2062     1.0  0.82378  0.81177  0.59968  1.0000
  H   H2063     1.0  0.79382  0.80395  0.68382  1.0000
  O   O789      1.0  0.81712  0.80248  0.68741  1.0000
  H   H2064     1.0  0.82835  0.80392  0.66800  1.0000
  H   H2065     1.0  0.80048  0.80889  0.74975  1.0000
  O   O790      1.0  0.81936  0.80011  0.74240  1.0000
  H   H2066     1.0  0.82127  0.80366  0.71745  1.0000
  H   H2067     1.0  0.79263  0.79370  0.81117  1.0000
  O   O791      1.0  0.81483  0.78774  0.81963  1.0000
  H   H2068     1.0  0.83032  0.79934  0.80879  1.0000
  H   H2069     1.0  0.78658  0.78858  0.88339  1.0000
  O   O792      1.0  0.80783  0.78262  0.87748  1.0000
  H   H2070     1.0  0.81143  0.78723  0.85480  1.0000
  H   H2071     1.0  0.87365  0.28687  0.16106  1.0000
  O   O793      1.0  0.86898  0.26294  0.15603  1.0000
  H   H2072     1.0  0.88570  0.25056  0.16358  1.0000
  H   H2073     1.0  0.86978  0.27575  0.23645  1.0000
  O   O794      1.0  0.87079  0.25323  0.23601  1.0000
  H   H2074     1.0  0.87616  0.24612  0.25679  1.0000
  H   H2075     1.0  0.88075  0.27057  0.30827  1.0000
  O   O795      1.0  0.87015  0.25113  0.31077  1.0000
  H   H2076     1.0  0.86653  0.24818  0.33419  1.0000
  H   H2077     1.0  0.85732  0.27811  0.36474  1.0000
  O   O796      1.0  0.85642  0.25425  0.36768  1.0000
  H   H2078     1.0  0.86969  0.24818  0.38647  1.0000
  H   H2079     1.0  0.88084  0.26801  0.42633  1.0000
  O   O797      1.0  0.88423  0.24685  0.41759  1.0000
  H   H2080     1.0  0.88065  0.23119  0.43330  1.0000
  H   H2081     1.0  0.86691  0.26681  0.49363  1.0000
  O   O798      1.0  0.85885  0.24703  0.49997  1.0000
  H   H2082     1.0  0.86442  0.24315  0.52277  1.0000
  H   H2083     1.0  0.84104  0.25576  0.55598  1.0000
  O   O799      1.0  0.85639  0.23977  0.55758  1.0000
  H   H2084     1.0  0.86234  0.24214  0.58508  1.0000
  H   H2085     1.0  0.86151  0.27938  0.61116  1.0000
  O   O800      1.0  0.86020  0.24852  0.61150  1.0000
  H   H2086     1.0  0.87364  0.23807  0.62590  1.0000
  H   H2087     1.0  0.85214  0.25839  0.68274  1.0000
  O   O801      1.0  0.85645  0.23728  0.68985  1.0000
  H   H2088     1.0  0.86925  0.24026  0.70884  1.0000
  H   H2089     1.0  0.88640  0.27683  0.74648  1.0000
  O   O802      1.0  0.88864  0.25535  0.73843  1.0000
  H   H2090     1.0  0.89329  0.24227  0.75608  1.0000
  H   H2091     1.0  0.87142  0.29234  0.83054  1.0000
  O   O803      1.0  0.86597  0.26905  0.83761  1.0000
  H   H2092     1.0  0.88490  0.25811  0.84048  1.0000
  H   H2093     1.0  0.87335  0.31527  0.19452  1.0000
  O   O804      1.0  0.87678  0.31509  0.17133  1.0000
  H   H2094     1.0  0.87071  0.33603  0.16229  1.0000
  H   H2095     1.0  0.83914  0.31761  0.22630  1.0000
  O   O805      1.0  0.86096  0.31856  0.23006  1.0000
  H   H2096     1.0  0.86776  0.34122  0.23290  1.0000
  H   H2097     1.0  0.86677  0.31461  0.27628  1.0000
  O   O806      1.0  0.87075  0.31969  0.29823  1.0000
  H   H2098     1.0  0.87145  0.34266  0.29949  1.0000
  H   H2099     1.0  0.85095  0.32913  0.36127  1.0000
  O   O807      1.0  0.85876  0.30881  0.35480  1.0000
  H   H2100     1.0  0.86340  0.31054  0.33177  1.0000
  H   H2101     1.0  0.84821  0.30522  0.43121  1.0000
  O   O808      1.0  0.87034  0.30150  0.43260  1.0000
  H   H2102     1.0  0.88064  0.31948  0.42417  1.0000
  H   H2103     1.0  0.85279  0.34706  0.50122  1.0000
  O   O809      1.0  0.86114  0.32597  0.50490  1.0000
  H   H2104     1.0  0.87203  0.32006  0.48610  1.0000
  H   H2105     1.0  0.87159  0.32475  0.54066  1.0000
  O   O810      1.0  0.87726  0.33088  0.56242  1.0000
  H   H2106     1.0  0.87546  0.35638  0.56572  1.0000
  H   H2107     1.0  0.86971  0.31752  0.58251  1.0000
  O   O811      1.0  0.86113  0.30363  0.60760  1.0000
  H   H2108     1.0  0.85281  0.31461  0.62521  1.0000
  H   H2109     1.0  0.84344  0.30996  0.69910  1.0000
  O   O812      1.0  0.85422  0.29891  0.68247  1.0000
  H   H2110     1.0  0.87426  0.30797  0.68112  1.0000
  H   H2111     1.0  0.85730  0.31389  0.75204  1.0000
  O   O813      1.0  0.88021  0.31171  0.75937  1.0000
  H   H2112     1.0  0.89204  0.32725  0.74860  1.0000
  H   H2113     1.0  0.87888  0.33998  0.82551  1.0000
  O   O814      1.0  0.87957  0.31858  0.81750  1.0000
  H   H2114     1.0  0.88078  0.31705  0.79383  1.0000
  H   H2115     1.0  0.83620  0.37124  0.16464  1.0000
  O   O815      1.0  0.85642  0.36553  0.15244  1.0000
  H   H2116     1.0  0.86948  0.38341  0.15116  1.0000
  H   H2117     1.0  0.87351  0.39269  0.23173  1.0000
  O   O816      1.0  0.88205  0.37081  0.23486  1.0000
  H   H2118     1.0  0.90367  0.37129  0.23133  1.0000
  H   H2119     1.0  0.84354  0.37579  0.28721  1.0000
  O   O817      1.0  0.85868  0.37777  0.30490  1.0000
  H   H2120     1.0  0.86884  0.39895  0.30464  1.0000
  H   H2121     1.0  0.83836  0.38543  0.36662  1.0000
  O   O818      1.0  0.83570  0.36572  0.35506  1.0000
  H   H2122     1.0  0.84570  0.37039  0.33291  1.0000
  H   H2123     1.0  0.85285  0.37363  0.41877  1.0000
  O   O819      1.0  0.86562  0.37564  0.43724  1.0000
  H   H2124     1.0  0.87375  0.39747  0.43659  1.0000
  H   H2125     1.0  0.83745  0.39968  0.49400  1.0000
  O   O820      1.0  0.83578  0.37794  0.48747  1.0000
  H   H2126     1.0  0.84629  0.37640  0.46628  1.0000
  H   H2127     1.0  0.85741  0.38581  0.58970  1.0000
  O   O821      1.0  0.87015  0.38372  0.57113  1.0000
  H   H2128     1.0  0.87420  0.40369  0.55795  1.0000
  H   H2129     1.0  0.84102  0.40279  0.63269  1.0000
  O   O822      1.0  0.84045  0.37796  0.63016  1.0000
  H   H2130     1.0  0.85482  0.37088  0.64608  1.0000
  H   H2131     1.0  0.83699  0.38436  0.69398  1.0000
  O   O823      1.0  0.85416  0.37043  0.69260  1.0000
  H   H2132     1.0  0.86637  0.37464  0.71165  1.0000
  H   H2133     1.0  0.86904  0.40782  0.75004  1.0000
  O   O824      1.0  0.87957  0.38791  0.74504  1.0000
  H   H2134     1.0  0.89965  0.38892  0.75402  1.0000
  H   H2135     1.0  0.87584  0.39748  0.82969  1.0000
  O   O825      1.0  0.87979  0.37547  0.84007  1.0000
  H   H2136     1.0  0.89860  0.37645  0.85172  1.0000
  H   H2137     1.0  0.87162  0.43130  0.17923  1.0000
  O   O826      1.0  0.87025  0.44074  0.15850  1.0000
  H   H2138     1.0  0.87579  0.46316  0.16087  1.0000
  H   H2139     1.0  0.84157  0.42819  0.22076  1.0000
  O   O827      1.0  0.86334  0.42476  0.22492  1.0000
  H   H2140     1.0  0.87315  0.44558  0.22857  1.0000
  H   H2141     1.0  0.87057  0.45024  0.30296  1.0000
  O   O828      1.0  0.88197  0.42991  0.30741  1.0000
  H   H2142     1.0  0.90213  0.43130  0.29869  1.0000
  H   H2143     1.0  0.83556  0.43588  0.36185  1.0000
  O   O829      1.0  0.84953  0.42233  0.37476  1.0000
  H   H2144     1.0  0.86908  0.42373  0.36420  1.0000
  H   H2145     1.0  0.85648  0.43229  0.41654  1.0000
  O   O830      1.0  0.87022  0.43467  0.43463  1.0000
  H   H2146     1.0  0.88037  0.45611  0.42993  1.0000
  H   H2147     1.0  0.84389  0.46061  0.49348  1.0000
  O   O831      1.0  0.85184  0.43962  0.49003  1.0000
  H   H2148     1.0  0.85904  0.43789  0.46732  1.0000
  H   H2149     1.0  0.86940  0.43284  0.51854  1.0000
  O   O832      1.0  0.87952  0.42982  0.54007  1.0000
  H   H2150     1.0  0.88062  0.44977  0.55036  1.0000
  H   H2151     1.0  0.84612  0.44512  0.61901  1.0000
  O   O833      1.0  0.84497  0.43233  0.63744  1.0000
  H   H2152     1.0  0.85922  0.44056  0.65633  1.0000
  H   H2153     1.0  0.87867  0.43834  0.69726  1.0000
  O   O834      1.0  0.87494  0.45187  0.67983  1.0000
  H   H2154     1.0  0.86808  0.47498  0.68653  1.0000
  H   H2155     1.0  0.83018  0.44045  0.75381  1.0000
  O   O835      1.0  0.85196  0.43970  0.75752  1.0000
  H   H2156     1.0  0.85944  0.46146  0.75707  1.0000
  H   H2157     1.0  0.85837  0.42616  0.79770  1.0000
  O   O836      1.0  0.86752  0.42558  0.81867  1.0000
  H   H2158     1.0  0.87664  0.44730  0.82151  1.0000
  H   H2159     1.0  0.85140  0.50039  0.17767  1.0000
  O   O837      1.0  0.87406  0.49770  0.17218  1.0000
  H   H2160     1.0  0.88091  0.51930  0.16654  1.0000
  H   H2161     1.0  0.89471  0.49271  0.23934  1.0000
  O   O838      1.0  0.88432  0.47900  0.22522  1.0000
  H   H2162     1.0  0.88340  0.48815  0.20306  1.0000
  H   H2163     1.0  0.83879  0.48094  0.27895  1.0000
  O   O839      1.0  0.85175  0.47883  0.29998  1.0000
  H   H2164     1.0  0.86160  0.50057  0.30138  1.0000
  H   H2165     1.0  0.86022  0.53219  0.37111  1.0000
  O   O840      1.0  0.86351  0.50855  0.37248  1.0000
  H   H2166     1.0  0.87168  0.50070  0.35313  1.0000
  H   H2167     1.0  0.87656  0.49560  0.40016  1.0000
  O   O841      1.0  0.88657  0.48648  0.42002  1.0000
  H   H2168     1.0  0.89275  0.50297  0.43377  1.0000
  H   H2169     1.0  0.84223  0.51948  0.49648  1.0000
  O   O842      1.0  0.83598  0.49875  0.50785  1.0000
  H   H2170     1.0  0.84673  0.49756  0.52820  1.0000
  H   H2171     1.0  0.85510  0.49742  0.58324  1.0000
  O   O843      1.0  0.86564  0.49634  0.56281  1.0000
  H   H2172     1.0  0.88122  0.51224  0.56350  1.0000
  H   H2173     1.0  0.84586  0.53011  0.62087  1.0000
  O   O844      1.0  0.84266  0.50646  0.62489  1.0000
  H   H2174     1.0  0.85709  0.50042  0.64102  1.0000
  H   H2175     1.0  0.83930  0.49978  0.70766  1.0000
  O   O845      1.0  0.85647  0.50142  0.69258  1.0000
  H   H2176     1.0  0.86255  0.52376  0.68701  1.0000
  H   H2177     1.0  0.86764  0.51759  0.76129  1.0000
  O   O846      1.0  0.87739  0.49634  0.75996  1.0000
  H   H2178     1.0  0.89213  0.49743  0.74314  1.0000
  H   H2179     1.0  0.88522  0.48545  0.79471  1.0000
  O   O847      1.0  0.88658  0.47916  0.81731  1.0000
  H   H2180     1.0  0.88053  0.49717  0.82938  1.0000
  H   H2181     1.0  0.89011  0.55724  0.19185  1.0000
  O   O848      1.0  0.88426  0.55559  0.17013  1.0000
  H   H2182     1.0  0.87581  0.57685  0.16401  1.0000
  H   H2183     1.0  0.84334  0.55439  0.23538  1.0000
  O   O849      1.0  0.86339  0.55567  0.24499  1.0000
  H   H2184     1.0  0.87138  0.57702  0.24151  1.0000
  H   H2185     1.0  0.86885  0.54131  0.27602  1.0000
  O   O850      1.0  0.87265  0.53108  0.29744  1.0000
  H   H2186     1.0  0.87160  0.54698  0.31330  1.0000
  H   H2187     1.0  0.83233  0.56669  0.35827  1.0000
  O   O851      1.0  0.85204  0.56333  0.37006  1.0000
  H   H2188     1.0  0.86203  0.58386  0.36896  1.0000
  H   H2189     1.0  0.86151  0.55915  0.41479  1.0000
  O   O852      1.0  0.87199  0.56158  0.43484  1.0000
  H   H2190     1.0  0.87380  0.58469  0.43967  1.0000
  H   H2191     1.0  0.83224  0.56201  0.48623  1.0000
  O   O853      1.0  0.84941  0.54816  0.48495  1.0000
  H   H2192     1.0  0.85969  0.55171  0.46277  1.0000
  H   H2193     1.0  0.86671  0.55662  0.53846  1.0000
  O   O854      1.0  0.87495  0.56564  0.55748  1.0000
  H   H2194     1.0  0.87383  0.58867  0.55438  1.0000
  H   H2195     1.0  0.84744  0.58127  0.61978  1.0000
  O   O855      1.0  0.85652  0.56058  0.61456  1.0000
  H   H2196     1.0  0.86425  0.56149  0.59218  1.0000
  H   H2197     1.0  0.87025  0.55523  0.65194  1.0000
  O   O856      1.0  0.87045  0.55309  0.67488  1.0000
  H   H2198     1.0  0.86870  0.57425  0.68392  1.0000
  H   H2199     1.0  0.83403  0.55029  0.76878  1.0000
  O   O857      1.0  0.85630  0.55066  0.76758  1.0000
  H   H2200     1.0  0.86367  0.57279  0.76354  1.0000
  H   H2201     1.0  0.86395  0.54883  0.80358  1.0000
  O   O858      1.0  0.86587  0.54814  0.82698  1.0000
  H   H2202     1.0  0.88046  0.56362  0.83347  1.0000
  H   H2203     1.0  0.84026  0.61091  0.16921  1.0000
  O   O859      1.0  0.86110  0.60755  0.15974  1.0000
  H   H2204     1.0  0.87189  0.62787  0.16204  1.0000
  H   H2205     1.0  0.87470  0.63068  0.23610  1.0000
  O   O860      1.0  0.88415  0.61035  0.23250  1.0000
  H   H2206     1.0  0.89920  0.61351  0.21623  1.0000
  H   H2207     1.0  0.84090  0.61332  0.28209  1.0000
  O   O861      1.0  0.84949  0.60497  0.30241  1.0000
  H   H2208     1.0  0.86297  0.61866  0.31379  1.0000
  H   H2209     1.0  0.85419  0.64073  0.36060  1.0000
  O   O862      1.0  0.86833  0.62234  0.36266  1.0000
  H   H2210     1.0  0.88726  0.62997  0.37105  1.0000
  H   H2211     1.0  0.85634  0.61824  0.47093  1.0000
  O   O863      1.0  0.87030  0.61521  0.45263  1.0000
  H   H2212     1.0  0.87730  0.63556  0.44607  1.0000
  H   H2213     1.0  0.83923  0.65306  0.49715  1.0000
  O   O864      1.0  0.83553  0.62956  0.50007  1.0000
  H   H2214     1.0  0.84550  0.62342  0.52054  1.0000
  H   H2215     1.0  0.84582  0.62285  0.56922  1.0000
  O   O865      1.0  0.86096  0.62235  0.55274  1.0000
  H   H2216     1.0  0.86986  0.64496  0.55078  1.0000
  H   H2217     1.0  0.84630  0.63754  0.63009  1.0000
  O   O866      1.0  0.84028  0.61483  0.63500  1.0000
  H   H2218     1.0  0.85058  0.61136  0.65610  1.0000
  H   H2219     1.0  0.84697  0.61651  0.70490  1.0000
  O   O867      1.0  0.86345  0.61008  0.68785  1.0000
  H   H2220     1.0  0.88124  0.62282  0.69115  1.0000
  H   H2221     1.0  0.84885  0.61411  0.75336  1.0000
  O   O868      1.0  0.86785  0.60736  0.76490  1.0000
  H   H2222     1.0  0.88255  0.62333  0.75828  1.0000
  H   H2223     1.0  0.86895  0.61128  0.80634  1.0000
  O   O869      1.0  0.87260  0.61972  0.82744  1.0000
  H   H2224     1.0  0.86646  0.64869  0.82599  1.0000
  H   H2225     1.0  0.87097  0.66345  0.19636  1.0000
  O   O870      1.0  0.87968  0.66171  0.17497  1.0000
  H   H2226     1.0  0.88677  0.68313  0.17095  1.0000
  H   H2227     1.0  0.83492  0.67169  0.22358  1.0000
  O   O871      1.0  0.85639  0.67156  0.23011  1.0000
  H   H2228     1.0  0.86201  0.69396  0.23432  1.0000
  H   H2229     1.0  0.85559  0.67242  0.28352  1.0000
  O   O872      1.0  0.86105  0.67893  0.30449  1.0000
  H   H2230     1.0  0.86984  0.70247  0.30460  1.0000
  H   H2231     1.0  0.83006  0.68569  0.36163  1.0000
  O   O873      1.0  0.83332  0.66677  0.35012  1.0000
  H   H2232     1.0  0.84500  0.67236  0.32791  1.0000
  H   H2233     1.0  0.85106  0.67484  0.42602  1.0000
  O   O874      1.0  0.86798  0.67908  0.43989  1.0000
  H   H2234     1.0  0.87473  0.70247  0.43593  1.0000
  H   H2235     1.0  0.83432  0.70342  0.49330  1.0000
  O   O875      1.0  0.84728  0.68400  0.49264  1.0000
  H   H2236     1.0  0.85741  0.68220  0.47056  1.0000
  H   H2237     1.0  0.86489  0.68077  0.52121  1.0000
  O   O876      1.0  0.87500  0.67453  0.54220  1.0000
  H   H2238     1.0  0.88260  0.69215  0.55351  1.0000
  H   H2239     1.0  0.85067  0.68669  0.62128  1.0000
  O   O877      1.0  0.84967  0.66933  0.63531  1.0000
  H   H2240     1.0  0.85378  0.67603  0.65829  1.0000
  H   H2241     1.0  0.83845  0.68462  0.70191  1.0000
  O   O878      1.0  0.85793  0.68505  0.69063  1.0000
  H   H2242     1.0  0.86574  0.70810  0.69096  1.0000
  H   H2243     1.0  0.87794  0.67007  0.72027  1.0000
  O   O879      1.0  0.88658  0.66178  0.74007  1.0000
  H   H2244     1.0  0.89011  0.67945  0.75350  1.0000
  H   H2245     1.0  0.83275  0.67408  0.81922  1.0000
  O   O880      1.0  0.85651  0.67159  0.82509  1.0000
  H   H2246     1.0  0.86864  0.69211  0.82134  1.0000
  H   H2247     1.0  0.86085  0.72467  0.17440  1.0000
  O   O881      1.0  0.88320  0.72132  0.17614  1.0000
  H   H2248     1.0  0.88775  0.72733  0.19761  1.0000
  H   H2249     1.0  0.84520  0.73867  0.23867  1.0000
  O   O882      1.0  0.86580  0.72838  0.24021  1.0000
  H   H2250     1.0  0.87564  0.73431  0.25978  1.0000
  H   H2251     1.0  0.85409  0.74087  0.30478  1.0000
  O   O883      1.0  0.87547  0.73179  0.30613  1.0000
  H   H2252     1.0  0.88266  0.73738  0.32816  1.0000
  H   H2253     1.0  0.85746  0.74716  0.36772  1.0000
  O   O884      1.0  0.87981  0.74563  0.36262  1.0000
  H   H2254     1.0  0.89170  0.74430  0.38156  1.0000
  H   H2255     1.0  0.85637  0.74174  0.43110  1.0000
  O   O885      1.0  0.87721  0.73352  0.43510  1.0000
  H   H2256     1.0  0.88249  0.74155  0.45683  1.0000
  H   H2257     1.0  0.85414  0.74651  0.49444  1.0000
  O   O886      1.0  0.87618  0.75158  0.49087  1.0000
  H   H2258     1.0  0.88581  0.75182  0.51124  1.0000
  H   H2259     1.0  0.84656  0.74653  0.57204  1.0000
  O   O887      1.0  0.86099  0.75601  0.55758  1.0000
  H   H2260     1.0  0.85494  0.77776  0.55831  1.0000
  H   H2261     1.0  0.85592  0.74871  0.62472  1.0000
  O   O888      1.0  0.87728  0.74817  0.63488  1.0000
  H   H2262     1.0  0.89296  0.75455  0.62062  1.0000
  H   H2263     1.0  0.86005  0.75260  0.69841  1.0000
  O   O889      1.0  0.87491  0.73838  0.69001  1.0000
  H   H2264     1.0  0.87840  0.74386  0.66630  1.0000
  H   H2265     1.0  0.85512  0.73668  0.75035  1.0000
  O   O890      1.0  0.87615  0.73102  0.75863  1.0000
  H   H2266     1.0  0.89142  0.73709  0.74359  1.0000
  H   H2267     1.0  0.86999  0.73644  0.82821  1.0000
  O   O891      1.0  0.87960  0.72106  0.81508  1.0000
  H   H2268     1.0  0.87918  0.72704  0.79177  1.0000
