data_image0
_chemical_formula_structural       I240Pb64C81N81H487OH2OH2OH2OH2OH2OH2OH2OH2OH2OH2OH2OH2OH2OH2OH2OH2OH2OH2OH2OH2OH2OH2OH2OH2OH2OH2OH2OH2OH2OH2OH2OH2OH2OH2OH2OH2OH2OH2OH2OH2OH2OH2OH2OH2OH2OH2OH2OH2OH2OH2OH2OH2OH2OH2OH2OH2OH2OH2OH2OH2OH2OH2OH2OH2OH2OH2OH2OH2OH2OH2OH2OH2OH2OH2OH2OH2OH2OH2OH2OH2OH2OH2OH2OH2OH2OH2OH2OH2OH2OH2OH2OH2OH2OH2OH2OH2OH2OH2OH2OH2OH2OH2OH2OH2OH2OH2OH2OH2OH2OH2OH2OH2OH2OH2OH2OH2OH2OH2OH2OH2OH2OH2OH2OH2OH2OH2OH2OH2OH2OH2OH2OH2OH2OH2OH2OH2OH2OH2OH2OH2OH2OH2OH2OH2OH2OH2OH2OH2OH2OH2OH2OH2OH2OH2OH2OH2OH2OH2OH2OH2OH2OH2OH2OH2OH2OH2OH2OH2OH2OH2OH2OH2OH2OH2OH2OH2OH2OH2OH2OH2OH2OH2OH2OH2OH2OH2OH2OH2OH2OH2OH2OH2OH2OH2OH2OH2OH2OH2OH2OH2OH2OH2OH2OH2OH2OH2OH2OH2OH2OH2OH2OH2OH2OH2OH2OH2OH2OH2OH2OH2OH2OH2OH2OH2OH2OH2OH2OH2OH2OH2OH2OH2OH2OH2OH2OH2OH2OH2OH2OH2OH2OH2OH2OH2OH2OH2OH2OH2OH2OH2OH2OH2OH2OH2OH2OH2OH2OH2OH2OH2OH2OH2OH2OH2OH2OH2OH2OH2OH2OH2OH2OH2OH2OH2OH2OH2OH2OH2OH2OH2OH2OH2OH2OH2OH2OH2OH2OH2OH2OH2OH2OH2OH2OH2OH2OH2OH2OH2OH2OH2OH2OH2OH2OH2OH2OH2OH2OH2OH2OH2OH2OH2OH2OH2OH2OH2OH2OH2OH2OH2OH2OH2OH2OH2OH2OH2OH2OH2OH2OH2OH2OH2OH2OH2OH2OH2OH2OH2OH2OH2OH2OH2OH2OH2OH2OH2OH2OH2OH2OH2OH2OH2OH2OH2OH2OH2OH2OH2OH2OH2OH2OH2OH2OH2OH2OH2OH2OH2OH2OH2OH2OH2OH2OH2OH2OH2OH2OH2OH2OH2OH2OH2OH2OH2OH2OH2OH2OH2OH2OH2OH2OH2OH2OH2OH2OH2OH2OH2OH2OH2OH2OH2OH2OH2OH2OH2OH2OH2OH2OH2OH2OH2OH2OH2OH2OH2OH2OH2OH2OH2OH2OH2OH2OH2OH2OH2OH2OH2OH2OH2OH2OH2OH2OH2OH2OH2OH2OH2OH2OH2OH2OH2OH2OH2OH2OH2OH2OH2OH2OH2OH2OH2OH2OH2OH2OH2OH2OH2OH2OH2OH2OH2OH2OH2OH2OH2OH2OH2OH2OH2OH2OH2OH2OH2OH2OH2OH2OH2OH2OH2OH2OH2OH2OH2OH2OH2OH2OH2OH2OH2OH2OH2OH2OH2OH2OH2OH2OH2OH2OH2OH2OH2OH2OH2OH2OH2OH2OH2OH2OH2OH2OH2OH2OH2OH2OH2OH2OH2OH2OH2OH2OH2OH2OH2OH2OH2OH2OH2OH2OH2OH2OH2OH2OH2OH2OH2OH2OH2OH2OH2OH2OH2OH2OH2OH2OH2OH2OH2OH2OH2OH2OH2OH2OH2OH2OH2OH2OH2OH2OH2OH2OH2OH2OH2OH2OH2OH2OH2OH2OH2OH2OH2OH2OH2OH2OH2OH2OH2OH2OH2OH2OH2OH2OH2OH2OH2OH2OH2OH2OH2OH2OH2OH2OH2OH2OH2OH2OH2OH2OH2OH2OH2OH2OH2OH2OH2OH2OH2OH2OH2OH2OH2OH2OH2OH2OH2OH2OH2OH2OH2OH2OH2OH2OH2OH2OH2OH2OH2OH2OH2OH2OH2OH2OH2OH2OH2OH2OH2OH2OH2OH2OH2OH2OH2OH2OH2OH2OH2OH2OH2OH2OH2OH2OH2OH2OH2OH2OH2OH2OH2OH2OH2OH2OH2OH2OH2OH2OH2OH2OH2OH2OH2OH2OH2OH2OH2OH2OH2OH2OH2OH2OH2OH2OH2OH2OH2OH2OH2OH2OH2OH2OH2OH2OH2OH2OH2OH2OH2OH2OH2OH2OH2OH2OH2OH2OH2OH2OH2OH2OH2OH2OH2OH2OH2OH2OH2OH2OH2OH2OH2OH2OH2OH2OH2OH2OH2OH2OH2OH2OH2OH2OH2OH2OH2OH2OH2OH2OH2OH2OH2OH2OH2OH2OH2OH2OH2OH2OH2OH2OH2OH2OH2OH2OH2OH2OH2OH2OH2OH2OH2OH2OH2OH2OH2OH2OH2OH2OH2OH2OH2OH2OH2OH2OH2OH2OH2OH2OH2OH2OH2OH2OH2OH2OH2OH2OH2OH2OH2OH2OH2OH2OH2OH2OH2OH2OH2OH2OH2OH2OH2OH2OH2OH2OH2OH2OH2OH2OH2OH2OH2OH2OH2OH2OH2OH2OH2OH2OH2OH2OH2OH2OH2OH2OH2OH2OH2OH2OH2OH2OH2OH2OH2OH2OH2OH2OH2OH2OH2OH2OH2OH2OH2OH2OH2OH2OH2OH2OH2OH2OH2OH2OH2OH2OH2OH2OH2OH2OH2OH2OH2OH2OH2OH2OH2OH2OH2OH2OH2OH2OH2OH2OH2OH2OH2OH2OH2OH2OH2OH2OH2OH2OH2OH2OH2OH2OH2OH2OH2OH2OH2OH
_chemical_formula_sum              "I240 Pb64 C81 N81 H2268 O891"
_cell_length_a       45.64
_cell_length_b       44.94
_cell_length_c       44.24
_cell_angle_alpha    90
_cell_angle_beta     90
_cell_angle_gamma    90

_space_group_name_H-M_alt    "P 1"
_space_group_IT_number       1

loop_
  _space_group_symop_operation_xyz
  'x, y, z'

loop_
  _atom_site_type_symbol
  _atom_site_label
  _atom_site_symmetry_multiplicity
  _atom_site_fract_x
  _atom_site_fract_y
  _atom_site_fract_z
  _atom_site_occupancy
  I   I1        1.0  0.27333  0.28373  0.20246  1.0000
  I   I2        1.0  0.42234  0.29750  0.20112  1.0000
  I   I3        1.0  0.55164  0.28568  0.20589  1.0000
  I   I4        1.0  0.68243  0.29844  0.20215  1.0000
  I   I5        1.0  0.28736  0.42879  0.19884  1.0000
  I   I6        1.0  0.41223  0.42430  0.20029  1.0000
  I   I7        1.0  0.55314  0.42476  0.20286  1.0000
  I   I8        1.0  0.67867  0.42893  0.20418  1.0000
  I   I9        1.0  0.28232  0.56787  0.20375  1.0000
  I   I10       1.0  0.40936  0.56601  0.20118  1.0000
  I   I11       1.0  0.55029  0.56322  0.20083  1.0000
  I   I12       1.0  0.67683  0.56546  0.20552  1.0000
  I   I13       1.0  0.26807  0.71030  0.20622  1.0000
  I   I14       1.0  0.42811  0.70776  0.20440  1.0000
  I   I15       1.0  0.54931  0.70554  0.20392  1.0000
  I   I16       1.0  0.67546  0.70107  0.20283  1.0000
  I   I17       1.0  0.28002  0.20580  0.27738  1.0000
  I   I18       1.0  0.41085  0.21227  0.29387  1.0000
  I   I19       1.0  0.54491  0.21003  0.28795  1.0000
  I   I20       1.0  0.69309  0.21903  0.27596  1.0000
  I   I21       1.0  0.21593  0.25521  0.28088  1.0000
  I   I22       1.0  0.27745  0.28661  0.34965  1.0000
  I   I23       1.0  0.26081  0.35464  0.27052  1.0000
  I   I24       1.0  0.34746  0.27732  0.26046  1.0000
  I   I25       1.0  0.40851  0.26125  0.34741  1.0000
  I   I26       1.0  0.40150  0.35342  0.28678  1.0000
  I   I27       1.0  0.48462  0.29181  0.28176  1.0000
  I   I28       1.0  0.55633  0.28537  0.35365  1.0000
  I   I29       1.0  0.56771  0.35416  0.27728  1.0000
  I   I30       1.0  0.62314  0.27760  0.27927  1.0000
  I   I31       1.0  0.68511  0.28779  0.35310  1.0000
  I   I32       1.0  0.67873  0.35884  0.28533  1.0000
  I   I33       1.0  0.76345  0.30558  0.27622  1.0000
  I   I34       1.0  0.19689  0.42405  0.30184  1.0000
  I   I35       1.0  0.27474  0.42084  0.34548  1.0000
  I   I36       1.0  0.25981  0.49192  0.27007  1.0000
  I   I37       1.0  0.34976  0.43996  0.27569  1.0000
  I   I38       1.0  0.41401  0.42373  0.34754  1.0000
  I   I39       1.0  0.43372  0.49446  0.27496  1.0000
  I   I40       1.0  0.48745  0.40423  0.27386  1.0000
  I   I41       1.0  0.55174  0.42231  0.35007  1.0000
  I   I42       1.0  0.54080  0.49462  0.28085  1.0000
  I   I43       1.0  0.62537  0.43944  0.28237  1.0000
  I   I44       1.0  0.69456  0.42633  0.35050  1.0000
  I   I45       1.0  0.70123  0.49710  0.28107  1.0000
  I   I46       1.0  0.77045  0.42658  0.28115  1.0000
  I   I47       1.0  0.20574  0.56813  0.27920  1.0000
  I   I48       1.0  0.27700  0.56348  0.34959  1.0000
  I   I49       1.0  0.28170  0.63724  0.27976  1.0000
  I   I50       1.0  0.34749  0.54670  0.27669  1.0000
  I   I51       1.0  0.41470  0.56304  0.34856  1.0000
  I   I52       1.0  0.39704  0.63721  0.27502  1.0000
  I   I53       1.0  0.48510  0.58120  0.27353  1.0000
  I   I54       1.0  0.54973  0.56393  0.34906  1.0000
  I   I55       1.0  0.57083  0.63655  0.27356  1.0000
  I   I56       1.0  0.62340  0.55198  0.28558  1.0000
  I   I57       1.0  0.69586  0.56771  0.35136  1.0000
  I   I58       1.0  0.68486  0.63859  0.28024  1.0000
  I   I59       1.0  0.76477  0.56909  0.27336  1.0000
  I   I60       1.0  0.20460  0.70984  0.28456  1.0000
  I   I61       1.0  0.27422  0.70593  0.35434  1.0000
  I   I62       1.0  0.27027  0.78477  0.28385  1.0000
  I   I63       1.0  0.34808  0.72532  0.26360  1.0000
  I   I64       1.0  0.41407  0.70062  0.35086  1.0000
  I   I65       1.0  0.42421  0.78192  0.29195  1.0000
  I   I66       1.0  0.48536  0.69242  0.28138  1.0000
  I   I67       1.0  0.55487  0.70203  0.35178  1.0000
  I   I68       1.0  0.54281  0.78595  0.28720  1.0000
  I   I69       1.0  0.62074  0.71946  0.28005  1.0000
  I   I70       1.0  0.68837  0.70034  0.35080  1.0000
  I   I71       1.0  0.68303  0.78644  0.28776  1.0000
  I   I72       1.0  0.76220  0.70375  0.27428  1.0000
  I   I73       1.0  0.28385  0.21273  0.42983  1.0000
  I   I74       1.0  0.41377  0.20603  0.43267  1.0000
  I   I75       1.0  0.54990  0.20708  0.43160  1.0000
  I   I76       1.0  0.68682  0.21613  0.42672  1.0000
  I   I77       1.0  0.21157  0.29403  0.42412  1.0000
  I   I78       1.0  0.28274  0.28617  0.49494  1.0000
  I   I79       1.0  0.28897  0.35475  0.42482  1.0000
  I   I80       1.0  0.34983  0.28079  0.41629  1.0000
  I   I81       1.0  0.42121  0.28506  0.49451  1.0000
  I   I82       1.0  0.41180  0.35159  0.42417  1.0000
  I   I83       1.0  0.48670  0.28589  0.41392  1.0000
  I   I84       1.0  0.54475  0.28080  0.49845  1.0000
  I   I85       1.0  0.56095  0.35179  0.42854  1.0000
  I   I86       1.0  0.62684  0.28223  0.43275  1.0000
  I   I87       1.0  0.70098  0.28865  0.49987  1.0000
  I   I88       1.0  0.70047  0.35182  0.42500  1.0000
  I   I89       1.0  0.79642  0.31385  0.42994  1.0000
  I   I90       1.0  0.20503  0.41454  0.41644  1.0000
  I   I91       1.0  0.28029  0.42295  0.49464  1.0000
  I   I92       1.0  0.26633  0.49550  0.42507  1.0000
  I   I93       1.0  0.34757  0.43448  0.41671  1.0000
  I   I94       1.0  0.41799  0.42281  0.49380  1.0000
  I   I95       1.0  0.42822  0.49454  0.42420  1.0000
  I   I96       1.0  0.48866  0.41492  0.41962  1.0000
  I   I97       1.0  0.55731  0.42293  0.49538  1.0000
  I   I98       1.0  0.55252  0.49450  0.42736  1.0000
  I   I99       1.0  0.63120  0.42569  0.41992  1.0000
  I   I100      1.0  0.69896  0.42522  0.49511  1.0000
  I   I101      1.0  0.70573  0.49460  0.42177  1.0000
  I   I102      1.0  0.77971  0.42258  0.41950  1.0000
  I   I103      1.0  0.20591  0.57602  0.41813  1.0000
  I   I104      1.0  0.27870  0.56289  0.49537  1.0000
  I   I105      1.0  0.28406  0.63892  0.42781  1.0000
  I   I106      1.0  0.34868  0.55651  0.41960  1.0000
  I   I107      1.0  0.41620  0.56279  0.49482  1.0000
  I   I108      1.0  0.41229  0.63787  0.42844  1.0000
  I   I109      1.0  0.48943  0.57637  0.42159  1.0000
  I   I110      1.0  0.55799  0.56450  0.49479  1.0000
  I   I111      1.0  0.56786  0.63814  0.42336  1.0000
  I   I112      1.0  0.63069  0.55813  0.41860  1.0000
  I   I113      1.0  0.69570  0.55999  0.49477  1.0000
  I   I114      1.0  0.69137  0.63709  0.43160  1.0000
  I   I115      1.0  0.77971  0.56328  0.41869  1.0000
  I   I116      1.0  0.20676  0.70511  0.42814  1.0000
  I   I117      1.0  0.28800  0.70078  0.49753  1.0000
  I   I118      1.0  0.27627  0.79279  0.43353  1.0000
  I   I119      1.0  0.34803  0.71422  0.42098  1.0000
  I   I120      1.0  0.41709  0.70242  0.49714  1.0000
  I   I121      1.0  0.41006  0.78715  0.42774  1.0000
  I   I122      1.0  0.48945  0.70751  0.42451  1.0000
  I   I123      1.0  0.55575  0.70063  0.49660  1.0000
  I   I124      1.0  0.55288  0.78572  0.42931  1.0000
  I   I125      1.0  0.63319  0.72358  0.42469  1.0000
  I   I126      1.0  0.70898  0.71415  0.49329  1.0000
  I   I127      1.0  0.67793  0.81837  0.46120  1.0000
  I   I128      1.0  0.78284  0.68128  0.42701  1.0000
  I   I129      1.0  0.29620  0.20875  0.56098  1.0000
  I   I130      1.0  0.41475  0.20758  0.57379  1.0000
  I   I131      1.0  0.56572  0.20775  0.57039  1.0000
  I   I132      1.0  0.67967  0.21071  0.57346  1.0000
  I   I133      1.0  0.21641  0.29163  0.56505  1.0000
  I   I134      1.0  0.28297  0.27866  0.64025  1.0000
  I   I135      1.0  0.28167  0.35288  0.57475  1.0000
  I   I136      1.0  0.35546  0.29210  0.56277  1.0000
  I   I137      1.0  0.41607  0.28515  0.64075  1.0000
  I   I138      1.0  0.43426  0.35216  0.56703  1.0000
  I   I139      1.0  0.49331  0.27113  0.57829  1.0000
  I   I140      1.0  0.56989  0.28891  0.63993  1.0000
  I   I141      1.0  0.55431  0.35308  0.57155  1.0000
  I   I142      1.0  0.63019  0.29001  0.55429  1.0000
  I   I143      1.0  0.68999  0.28989  0.63934  1.0000
  I   I144      1.0  0.70501  0.35278  0.57133  1.0000
  I   I145      1.0  0.78670  0.29627  0.56091  1.0000
  I   I146      1.0  0.21656  0.42755  0.57220  1.0000
  I   I147      1.0  0.28754  0.42312  0.64204  1.0000
  I   I148      1.0  0.28973  0.49457  0.57114  1.0000
  I   I149      1.0  0.35649  0.41454  0.56376  1.0000
  I   I150      1.0  0.42299  0.42279  0.64033  1.0000
  I   I151      1.0  0.41427  0.49438  0.57152  1.0000
  I   I152      1.0  0.49519  0.43565  0.56566  1.0000
  I   I153      1.0  0.56158  0.42487  0.64065  1.0000
  I   I154      1.0  0.57493  0.49440  0.56586  1.0000
  I   I155      1.0  0.63540  0.41751  0.56505  1.0000
  I   I156      1.0  0.70407  0.42726  0.64090  1.0000
  I   I157      1.0  0.70537  0.49441  0.56758  1.0000
  I   I158      1.0  0.78447  0.42388  0.56548  1.0000
  I   I159      1.0  0.20530  0.55651  0.56275  1.0000
  I   I160      1.0  0.27731  0.56219  0.64156  1.0000
  I   I161      1.0  0.27442  0.63735  0.57589  1.0000
  I   I162      1.0  0.35071  0.57361  0.56509  1.0000
  I   I163      1.0  0.42365  0.56431  0.64093  1.0000
  I   I164      1.0  0.42702  0.63795  0.56940  1.0000
  I   I165      1.0  0.49369  0.55661  0.56365  1.0000
  I   I166      1.0  0.56088  0.56173  0.64078  1.0000
  I   I167      1.0  0.55780  0.63672  0.57193  1.0000
  I   I168      1.0  0.63654  0.57249  0.56626  1.0000
  I   I169      1.0  0.70240  0.55961  0.64007  1.0000
  I   I170      1.0  0.71027  0.63846  0.55943  1.0000
  I   I171      1.0  0.78278  0.56056  0.56166  1.0000
  I   I172      1.0  0.20938  0.70931  0.55240  1.0000
  I   I173      1.0  0.26187  0.71357  0.63879  1.0000
  I   I174      1.0  0.28011  0.78350  0.56230  1.0000
  I   I175      1.0  0.34942  0.70777  0.57826  1.0000
  I   I176      1.0  0.42413  0.70064  0.64203  1.0000
  I   I177      1.0  0.40296  0.79466  0.57090  1.0000
  I   I178      1.0  0.49087  0.71516  0.56898  1.0000
  I   I179      1.0  0.56531  0.69991  0.64182  1.0000
  I   I180      1.0  0.55372  0.78502  0.56995  1.0000
  I   I181      1.0  0.63451  0.70750  0.56151  1.0000
  I   I182      1.0  0.69610  0.69512  0.63621  1.0000
  I   I183      1.0  0.67096  0.81272  0.57208  1.0000
  I   I184      1.0  0.78955  0.69107  0.57282  1.0000
  I   I185      1.0  0.28894  0.21790  0.72649  1.0000
  I   I186      1.0  0.42499  0.21921  0.71822  1.0000
  I   I187      1.0  0.56893  0.21458  0.70261  1.0000
  I   I188      1.0  0.68613  0.21467  0.71476  1.0000
  I   I189      1.0  0.21657  0.29448  0.70562  1.0000
  I   I190      1.0  0.28388  0.29441  0.79109  1.0000
  I   I191      1.0  0.28196  0.36143  0.72227  1.0000
  I   I192      1.0  0.35544  0.29509  0.70846  1.0000
  I   I193      1.0  0.44371  0.29777  0.78882  1.0000
  I   I194      1.0  0.42413  0.35960  0.71616  1.0000
  I   I195      1.0  0.49473  0.29120  0.69844  1.0000
  I   I196      1.0  0.55597  0.28358  0.78900  1.0000
  I   I197      1.0  0.56487  0.35649  0.71405  1.0000
  I   I198      1.0  0.63271  0.29473  0.70969  1.0000
  I   I199      1.0  0.68212  0.29457  0.78565  1.0000
  I   I200      1.0  0.71076  0.35445  0.70795  1.0000
  I   I201      1.0  0.77733  0.27576  0.68063  1.0000
  I   I202      1.0  0.21499  0.43095  0.70143  1.0000
  I   I203      1.0  0.29020  0.43500  0.78971  1.0000
  I   I204      1.0  0.26956  0.50079  0.72105  1.0000
  I   I205      1.0  0.35839  0.43293  0.71027  1.0000
  I   I206      1.0  0.43128  0.42937  0.79313  1.0000
  I   I207      1.0  0.43240  0.49672  0.71207  1.0000
  I   I208      1.0  0.49930  0.42821  0.70999  1.0000
  I   I209      1.0  0.57096  0.42822  0.79242  1.0000
  I   I210      1.0  0.57510  0.49561  0.71085  1.0000
  I   I211      1.0  0.64053  0.42319  0.70817  1.0000
  I   I212      1.0  0.70019  0.42504  0.79116  1.0000
  I   I213      1.0  0.71582  0.49531  0.72204  1.0000
  I   I214      1.0  0.78665  0.42209  0.70816  1.0000
  I   I215      1.0  0.21834  0.58023  0.71599  1.0000
  I   I216      1.0  0.29592  0.56634  0.78838  1.0000
  I   I217      1.0  0.30159  0.63718  0.70377  1.0000
  I   I218      1.0  0.35762  0.55512  0.70697  1.0000
  I   I219      1.0  0.42771  0.56226  0.79257  1.0000
  I   I220      1.0  0.42182  0.63618  0.71895  1.0000
  I   I221      1.0  0.49845  0.56611  0.71179  1.0000
  I   I222      1.0  0.57120  0.56123  0.79232  1.0000
  I   I223      1.0  0.56253  0.63533  0.71661  1.0000
  I   I224      1.0  0.64111  0.57229  0.71303  1.0000
  I   I225      1.0  0.71223  0.57455  0.78828  1.0000
  I   I226      1.0  0.72162  0.63613  0.70560  1.0000
  I   I227      1.0  0.78607  0.56284  0.70898  1.0000
  I   I228      1.0  0.21784  0.69437  0.70476  1.0000
  I   I229      1.0  0.29035  0.69459  0.78496  1.0000
  I   I230      1.0  0.28484  0.77953  0.71733  1.0000
  I   I231      1.0  0.35814  0.71055  0.70545  1.0000
  I   I232      1.0  0.44161  0.70567  0.78998  1.0000
  I   I233      1.0  0.43210  0.77935  0.70600  1.0000
  I   I234      1.0  0.49762  0.70285  0.70189  1.0000
  I   I235      1.0  0.55378  0.69893  0.79052  1.0000
  I   I236      1.0  0.56140  0.78518  0.70685  1.0000
  I   I237      1.0  0.63705  0.69153  0.70174  1.0000
  I   I238      1.0  0.67696  0.70216  0.77448  1.0000
  I   I239      1.0  0.67141  0.80397  0.69600  1.0000
  I   I240      1.0  0.78283  0.72215  0.67484  1.0000
  Pb  Pb1       1.0  0.27780  0.28673  0.27264  1.0000
  Pb  Pb2       1.0  0.41575  0.28824  0.27029  1.0000
  Pb  Pb3       1.0  0.55380  0.27839  0.27737  1.0000
  Pb  Pb4       1.0  0.69447  0.28928  0.27106  1.0000
  Pb  Pb5       1.0  0.28471  0.42844  0.26910  1.0000
  Pb  Pb6       1.0  0.42373  0.42624  0.27401  1.0000
  Pb  Pb7       1.0  0.55922  0.42420  0.27522  1.0000
  Pb  Pb8       1.0  0.70007  0.42661  0.27757  1.0000
  Pb  Pb9       1.0  0.27672  0.56894  0.27476  1.0000
  Pb  Pb10      1.0  0.41395  0.56924  0.27278  1.0000
  Pb  Pb11      1.0  0.55510  0.56686  0.27471  1.0000
  Pb  Pb12      1.0  0.69284  0.56755  0.27692  1.0000
  Pb  Pb13      1.0  0.27174  0.71637  0.27715  1.0000
  Pb  Pb14      1.0  0.41575  0.71338  0.27470  1.0000
  Pb  Pb15      1.0  0.55116  0.71352  0.27494  1.0000
  Pb  Pb16      1.0  0.69039  0.71172  0.27366  1.0000
  Pb  Pb17      1.0  0.27975  0.28071  0.42311  1.0000
  Pb  Pb18      1.0  0.42036  0.27565  0.42431  1.0000
  Pb  Pb19      1.0  0.56029  0.27718  0.42852  1.0000
  Pb  Pb20      1.0  0.72250  0.27382  0.41006  1.0000
  Pb  Pb21      1.0  0.27804  0.42355  0.42154  1.0000
  Pb  Pb22      1.0  0.42136  0.42147  0.42232  1.0000
  Pb  Pb23      1.0  0.56419  0.42242  0.42337  1.0000
  Pb  Pb24      1.0  0.71233  0.41953  0.42347  1.0000
  Pb  Pb25      1.0  0.27741  0.56776  0.42269  1.0000
  Pb  Pb26      1.0  0.42162  0.56475  0.42229  1.0000
  Pb  Pb27      1.0  0.56386  0.56517  0.42267  1.0000
  Pb  Pb28      1.0  0.71210  0.56323  0.42282  1.0000
  Pb  Pb29      1.0  0.27562  0.71654  0.42525  1.0000
  Pb  Pb30      1.0  0.41979  0.70913  0.42385  1.0000
  Pb  Pb31      1.0  0.56535  0.71075  0.42377  1.0000
  Pb  Pb32      1.0  0.71754  0.70016  0.42307  1.0000
  Pb  Pb33      1.0  0.28690  0.27699  0.56886  1.0000
  Pb  Pb34      1.0  0.42537  0.27668  0.57194  1.0000
  Pb  Pb35      1.0  0.56594  0.27764  0.56925  1.0000
  Pb  Pb36      1.0  0.71908  0.27433  0.57513  1.0000
  Pb  Pb37      1.0  0.28480  0.42322  0.57087  1.0000
  Pb  Pb38      1.0  0.42762  0.42128  0.57002  1.0000
  Pb  Pb39      1.0  0.56794  0.42181  0.56992  1.0000
  Pb  Pb40      1.0  0.71651  0.42075  0.56964  1.0000
  Pb  Pb41      1.0  0.28192  0.56629  0.57025  1.0000
  Pb  Pb42      1.0  0.42632  0.56299  0.56991  1.0000
  Pb  Pb43      1.0  0.56947  0.56348  0.57011  1.0000
  Pb  Pb44      1.0  0.71469  0.56358  0.56812  1.0000
  Pb  Pb45      1.0  0.27919  0.71369  0.56758  1.0000
  Pb  Pb46      1.0  0.42287  0.70701  0.57145  1.0000
  Pb  Pb47      1.0  0.56729  0.70646  0.57001  1.0000
  Pb  Pb48      1.0  0.72352  0.70747  0.57389  1.0000
  Pb  Pb49      1.0  0.28516  0.28834  0.72034  1.0000
  Pb  Pb50      1.0  0.43003  0.28878  0.72095  1.0000
  Pb  Pb51      1.0  0.56498  0.28378  0.71698  1.0000
  Pb  Pb52      1.0  0.71846  0.27789  0.71853  1.0000
  Pb  Pb53      1.0  0.28869  0.43096  0.71832  1.0000
  Pb  Pb54      1.0  0.43097  0.42797  0.72405  1.0000
  Pb  Pb55      1.0  0.57111  0.42518  0.72289  1.0000
  Pb  Pb56      1.0  0.71196  0.42215  0.71890  1.0000
  Pb  Pb57      1.0  0.28908  0.57039  0.71863  1.0000
  Pb  Pb58      1.0  0.42991  0.56643  0.72255  1.0000
  Pb  Pb59      1.0  0.57292  0.56382  0.72260  1.0000
  Pb  Pb60      1.0  0.71684  0.56586  0.71752  1.0000
  Pb  Pb61      1.0  0.28927  0.71020  0.71714  1.0000
  Pb  Pb62      1.0  0.43081  0.70951  0.72043  1.0000
  Pb  Pb63      1.0  0.56719  0.70381  0.72099  1.0000
  Pb  Pb64      1.0  0.72695  0.70746  0.71269  1.0000
  C   C1        1.0  0.34084  0.35308  0.20240  1.0000
  C   C2        1.0  0.48452  0.35831  0.19467  1.0000
  C   C3        1.0  0.61090  0.35580  0.20174  1.0000
  C   C4        1.0  0.34727  0.49594  0.19767  1.0000
  C   C5        1.0  0.47856  0.49111  0.19989  1.0000
  C   C6        1.0  0.61163  0.49401  0.20751  1.0000
  C   C7        1.0  0.34070  0.64085  0.19967  1.0000
  C   C8        1.0  0.48373  0.62995  0.19989  1.0000
  C   C9        1.0  0.61191  0.63239  0.19511  1.0000
  C   C10       1.0  0.33291  0.21114  0.34300  1.0000
  C   C11       1.0  0.48495  0.21696  0.35453  1.0000
  C   C12       1.0  0.61764  0.21462  0.34801  1.0000
  C   C13       1.0  0.20698  0.34970  0.34783  1.0000
  C   C14       1.0  0.33815  0.35528  0.34783  1.0000
  C   C15       1.0  0.48251  0.35324  0.34783  1.0000
  C   C16       1.0  0.61707  0.35605  0.34786  1.0000
  C   C17       1.0  0.75838  0.36278  0.34765  1.0000
  C   C18       1.0  0.20934  0.49407  0.34762  1.0000
  C   C19       1.0  0.34490  0.49245  0.34795  1.0000
  C   C20       1.0  0.48149  0.49200  0.34797  1.0000
  C   C21       1.0  0.61806  0.49215  0.35073  1.0000
  C   C22       1.0  0.75760  0.49977  0.34738  1.0000
  C   C23       1.0  0.20957  0.63213  0.34757  1.0000
  C   C24       1.0  0.34403  0.63193  0.34995  1.0000
  C   C25       1.0  0.48238  0.63246  0.34556  1.0000
  C   C26       1.0  0.61758  0.62944  0.34743  1.0000
  C   C27       1.0  0.75958  0.63797  0.34475  1.0000
  C   C28       1.0  0.34394  0.77113  0.35019  1.0000
  C   C29       1.0  0.48206  0.76744  0.35688  1.0000
  C   C30       1.0  0.61241  0.77358  0.35004  1.0000
  C   C31       1.0  0.34676  0.21785  0.49257  1.0000
  C   C32       1.0  0.48172  0.21251  0.49521  1.0000
  C   C33       1.0  0.62437  0.21448  0.49450  1.0000
  C   C34       1.0  0.21369  0.35600  0.49295  1.0000
  C   C35       1.0  0.34840  0.35290  0.49015  1.0000
  C   C36       1.0  0.48440  0.35386  0.49054  1.0000
  C   C37       1.0  0.62504  0.35613  0.48998  1.0000
  C   C38       1.0  0.75907  0.36357  0.49549  1.0000
  C   C39       1.0  0.21300  0.49014  0.49316  1.0000
  C   C40       1.0  0.34718  0.49207  0.49045  1.0000
  C   C41       1.0  0.48755  0.49226  0.48966  1.0000
  C   C42       1.0  0.62446  0.49213  0.48939  1.0000
  C   C43       1.0  0.76554  0.49083  0.48712  1.0000
  C   C44       1.0  0.21354  0.63125  0.49299  1.0000
  C   C45       1.0  0.34824  0.63229  0.49023  1.0000
  C   C46       1.0  0.48667  0.63414  0.49035  1.0000
  C   C47       1.0  0.62183  0.63000  0.49015  1.0000
  C   C48       1.0  0.75951  0.61738  0.49009  1.0000
  C   C49       1.0  0.34541  0.76915  0.49764  1.0000
  C   C50       1.0  0.48439  0.77095  0.49750  1.0000
  C   C51       1.0  0.61418  0.76561  0.49769  1.0000
  C   C52       1.0  0.34654  0.21488  0.64062  1.0000
  C   C53       1.0  0.47996  0.21996  0.64647  1.0000
  C   C54       1.0  0.61889  0.21424  0.63680  1.0000
  C   C55       1.0  0.21421  0.35513  0.63554  1.0000
  C   C56       1.0  0.35058  0.35531  0.63283  1.0000
  C   C57       1.0  0.48955  0.35537  0.63280  1.0000
  C   C58       1.0  0.62508  0.35850  0.63258  1.0000
  C   C59       1.0  0.76628  0.35796  0.62988  1.0000
  C   C60       1.0  0.21342  0.49423  0.63544  1.0000
  C   C61       1.0  0.35264  0.49234  0.63300  1.0000
  C   C62       1.0  0.48960  0.49342  0.63524  1.0000
  C   C63       1.0  0.62980  0.49230  0.63453  1.0000
  C   C64       1.0  0.76691  0.49177  0.63074  1.0000
  C   C65       1.0  0.21160  0.63012  0.63540  1.0000
  C   C66       1.0  0.35299  0.63239  0.63269  1.0000
  C   C67       1.0  0.48953  0.63083  0.63280  1.0000
  C   C68       1.0  0.62680  0.62773  0.63267  1.0000
  C   C69       1.0  0.76484  0.62476  0.62983  1.0000
  C   C70       1.0  0.35054  0.77527  0.64431  1.0000
  C   C71       1.0  0.48743  0.77128  0.64020  1.0000
  C   C72       1.0  0.62094  0.76483  0.63510  1.0000
  C   C73       1.0  0.35792  0.35346  0.78536  1.0000
  C   C74       1.0  0.50203  0.36328  0.77563  1.0000
  C   C75       1.0  0.62358  0.35791  0.77702  1.0000
  C   C76       1.0  0.35409  0.49434  0.77479  1.0000
  C   C77       1.0  0.49777  0.49407  0.77574  1.0000
  C   C78       1.0  0.63650  0.49372  0.77220  1.0000
  C   C79       1.0  0.35692  0.63485  0.77995  1.0000
  C   C80       1.0  0.49407  0.62965  0.77530  1.0000
  C   C81       1.0  0.62627  0.62980  0.78024  1.0000
  N   N1        1.0  0.37277  0.35584  0.21464  1.0000
  N   N2        1.0  0.51394  0.35570  0.21270  1.0000
  N   N3        1.0  0.64105  0.36076  0.21751  1.0000
  N   N4        1.0  0.37719  0.49395  0.21493  1.0000
  N   N5        1.0  0.51147  0.49156  0.20975  1.0000
  N   N6        1.0  0.64134  0.49615  0.22486  1.0000
  N   N7        1.0  0.37504  0.63939  0.19958  1.0000
  N   N8        1.0  0.51371  0.63206  0.21717  1.0000
  N   N9        1.0  0.63850  0.63228  0.21742  1.0000
  N   N10       1.0  0.35403  0.20461  0.37039  1.0000
  N   N11       1.0  0.51844  0.21732  0.36189  1.0000
  N   N12       1.0  0.65071  0.21707  0.35726  1.0000
  N   N13       1.0  0.23817  0.35296  0.36225  1.0000
  N   N14       1.0  0.37039  0.35585  0.35990  1.0000
  N   N15       1.0  0.51381  0.35316  0.36245  1.0000
  N   N16       1.0  0.64820  0.35828  0.36271  1.0000
  N   N17       1.0  0.78479  0.34304  0.35731  1.0000
  N   N18       1.0  0.24304  0.49162  0.35246  1.0000
  N   N19       1.0  0.37707  0.49175  0.36025  1.0000
  N   N20       1.0  0.51378  0.49154  0.35989  1.0000
  N   N21       1.0  0.65051  0.49162  0.36246  1.0000
  N   N22       1.0  0.78244  0.49140  0.37015  1.0000
  N   N23       1.0  0.24083  0.63246  0.36203  1.0000
  N   N24       1.0  0.37697  0.63214  0.35978  1.0000
  N   N25       1.0  0.51374  0.63233  0.36010  1.0000
  N   N26       1.0  0.64853  0.62987  0.36260  1.0000
  N   N27       1.0  0.78917  0.62981  0.36010  1.0000
  N   N28       1.0  0.37738  0.76795  0.35726  1.0000
  N   N29       1.0  0.51618  0.76786  0.36000  1.0000
  N   N30       1.0  0.64569  0.76541  0.35241  1.0000
  N   N31       1.0  0.37967  0.21970  0.50234  1.0000
  N   N32       1.0  0.51145  0.20048  0.50719  1.0000
  N   N33       1.0  0.65725  0.22251  0.50009  1.0000
  N   N34       1.0  0.24567  0.35326  0.50490  1.0000
  N   N35       1.0  0.37958  0.35305  0.50507  1.0000
  N   N36       1.0  0.51593  0.35339  0.50454  1.0000
  N   N37       1.0  0.65587  0.35775  0.50544  1.0000
  N   N38       1.0  0.78922  0.34811  0.49991  1.0000
  N   N39       1.0  0.24527  0.49137  0.50501  1.0000
  N   N40       1.0  0.37951  0.49151  0.50226  1.0000
  N   N41       1.0  0.51848  0.49162  0.50512  1.0000
  N   N42       1.0  0.65522  0.49132  0.50505  1.0000
  N   N43       1.0  0.78262  0.48904  0.51748  1.0000
  N   N44       1.0  0.24566  0.63230  0.50477  1.0000
  N   N45       1.0  0.37946  0.63207  0.50503  1.0000
  N   N46       1.0  0.51809  0.63211  0.50458  1.0000
  N   N47       1.0  0.65286  0.62722  0.50512  1.0000
  N   N48       1.0  0.77973  0.63953  0.50732  1.0000
  N   N49       1.0  0.37957  0.76799  0.50000  1.0000
  N   N50       1.0  0.51846  0.76787  0.49985  1.0000
  N   N51       1.0  0.64799  0.76291  0.50261  1.0000
  N   N52       1.0  0.37968  0.21718  0.64975  1.0000
  N   N53       1.0  0.51163  0.20753  0.64267  1.0000
  N   N54       1.0  0.65080  0.22482  0.64268  1.0000
  N   N55       1.0  0.24556  0.35292  0.64999  1.0000
  N   N56       1.0  0.38182  0.35552  0.64754  1.0000
  N   N57       1.0  0.52081  0.35548  0.64751  1.0000
  N   N58       1.0  0.65582  0.36051  0.64806  1.0000
  N   N59       1.0  0.79359  0.35291  0.65034  1.0000
  N   N60       1.0  0.24550  0.49136  0.64728  1.0000
  N   N61       1.0  0.38398  0.49161  0.64764  1.0000
  N   N62       1.0  0.52075  0.49152  0.65011  1.0000
  N   N63       1.0  0.66033  0.49149  0.65070  1.0000
  N   N64       1.0  0.79378  0.48934  0.65244  1.0000
  N   N65       1.0  0.24277  0.63239  0.65013  1.0000
  N   N66       1.0  0.38413  0.63219  0.64760  1.0000
  N   N67       1.0  0.52076  0.62980  0.64759  1.0000
  N   N68       1.0  0.65760  0.62484  0.64797  1.0000
  N   N69       1.0  0.78897  0.63442  0.65269  1.0000
  N   N70       1.0  0.38402  0.76791  0.64237  1.0000
  N   N71       1.0  0.52113  0.76519  0.63996  1.0000
  N   N72       1.0  0.65509  0.76314  0.63472  1.0000
  N   N73       1.0  0.38863  0.35811  0.80004  1.0000
  N   N74       1.0  0.52057  0.36048  0.80504  1.0000
  N   N75       1.0  0.64841  0.36343  0.80029  1.0000
  N   N76       1.0  0.38263  0.49441  0.79378  1.0000
  N   N77       1.0  0.52391  0.49444  0.79812  1.0000
  N   N78       1.0  0.65750  0.49420  0.79990  1.0000
  N   N79       1.0  0.38653  0.63202  0.79719  1.0000
  N   N80       1.0  0.52051  0.62684  0.79735  1.0000
  N   N81       1.0  0.65728  0.63187  0.79534  1.0000
  H   H1        1.0  0.34230  0.35432  0.17845  1.0000
  H   H2        1.0  0.32839  0.37108  0.21124  1.0000
  H   H3        1.0  0.33228  0.33215  0.20935  1.0000
  H   H4        1.0  0.38219  0.37619  0.20817  1.0000
  H   H5        1.0  0.38599  0.33865  0.20610  1.0000
  H   H6        1.0  0.37382  0.35456  0.23825  1.0000
  H   H7        1.0  0.48982  0.35970  0.17130  1.0000
  H   H8        1.0  0.47387  0.37820  0.20166  1.0000
  H   H9        1.0  0.47146  0.33932  0.19933  1.0000
  H   H10       1.0  0.52754  0.37371  0.20696  1.0000
  H   H11       1.0  0.52474  0.33549  0.20840  1.0000
  H   H12       1.0  0.50997  0.35702  0.23580  1.0000
  H   H13       1.0  0.61465  0.35657  0.17805  1.0000
  H   H14       1.0  0.59664  0.37324  0.20855  1.0000
  H   H15       1.0  0.60269  0.33474  0.20864  1.0000
  H   H16       1.0  0.65011  0.38149  0.21153  1.0000
  H   H17       1.0  0.65568  0.34373  0.21122  1.0000
  H   H18       1.0  0.63917  0.36015  0.24096  1.0000
  H   H19       1.0  0.35205  0.49788  0.17416  1.0000
  H   H20       1.0  0.33599  0.51495  0.20603  1.0000
  H   H21       1.0  0.33536  0.47610  0.20225  1.0000
  H   H22       1.0  0.38971  0.51302  0.21041  1.0000
  H   H23       1.0  0.38875  0.47481  0.20838  1.0000
  H   H24       1.0  0.37357  0.49283  0.23809  1.0000
  H   H25       1.0  0.47824  0.48797  0.17600  1.0000
  H   H26       1.0  0.46900  0.51172  0.20632  1.0000
  H   H27       1.0  0.46830  0.47301  0.21112  1.0000
  H   H28       1.0  0.52200  0.51032  0.20108  1.0000
  H   H29       1.0  0.52223  0.47232  0.20226  1.0000
  H   H30       1.0  0.51384  0.49245  0.23339  1.0000
  H   H31       1.0  0.61685  0.49474  0.18401  1.0000
  H   H32       1.0  0.59844  0.51242  0.21398  1.0000
  H   H33       1.0  0.60164  0.47347  0.21350  1.0000
  H   H34       1.0  0.65227  0.51596  0.21921  1.0000
  H   H35       1.0  0.65449  0.47780  0.21895  1.0000
  H   H36       1.0  0.63794  0.49555  0.24808  1.0000
  H   H37       1.0  0.33346  0.64066  0.17677  1.0000
  H   H38       1.0  0.33435  0.66068  0.21107  1.0000
  H   H39       1.0  0.33296  0.62174  0.21143  1.0000
  H   H40       1.0  0.38395  0.65621  0.18630  1.0000
  H   H41       1.0  0.38214  0.61882  0.19125  1.0000
  H   H42       1.0  0.38298  0.64127  0.22189  1.0000
  H   H43       1.0  0.48847  0.62618  0.17656  1.0000
  H   H44       1.0  0.47219  0.65021  0.20353  1.0000
  H   H45       1.0  0.47209  0.61153  0.20903  1.0000
  H   H46       1.0  0.52482  0.65170  0.21175  1.0000
  H   H47       1.0  0.52666  0.61353  0.21143  1.0000
  H   H48       1.0  0.51014  0.63146  0.24038  1.0000
  H   H49       1.0  0.62045  0.63081  0.17281  1.0000
  H   H50       1.0  0.60029  0.65266  0.19832  1.0000
  H   H51       1.0  0.59857  0.61369  0.20031  1.0000
  H   H52       1.0  0.65160  0.65117  0.21376  1.0000
  H   H53       1.0  0.65116  0.61292  0.21421  1.0000
  H   H54       1.0  0.63104  0.63296  0.23959  1.0000
  H   H55       1.0  0.34517  0.20884  0.32274  1.0000
  H   H56       1.0  0.32511  0.23331  0.34564  1.0000
  H   H57       1.0  0.31539  0.19555  0.34381  1.0000
  H   H58       1.0  0.37214  0.21880  0.36924  1.0000
  H   H59       1.0  0.36105  0.18246  0.37063  1.0000
  H   H60       1.0  0.34295  0.20880  0.39050  1.0000
  H   H61       1.0  0.48282  0.21889  0.33068  1.0000
  H   H62       1.0  0.47516  0.23548  0.36555  1.0000
  H   H63       1.0  0.47606  0.19656  0.36246  1.0000
  H   H64       1.0  0.52688  0.23890  0.35892  1.0000
  H   H65       1.0  0.52956  0.20383  0.34654  1.0000
  H   H66       1.0  0.52326  0.21084  0.38423  1.0000
  H   H67       1.0  0.61641  0.21595  0.32398  1.0000
  H   H68       1.0  0.60644  0.23280  0.35820  1.0000
  H   H69       1.0  0.60959  0.19384  0.35596  1.0000
  H   H70       1.0  0.65889  0.23823  0.35176  1.0000
  H   H71       1.0  0.66333  0.20134  0.34606  1.0000
  H   H72       1.0  0.65418  0.21407  0.38055  1.0000
  H   H73       1.0  0.20963  0.34894  0.32399  1.0000
  H   H74       1.0  0.19436  0.36844  0.35443  1.0000
  H   H75       1.0  0.19748  0.32974  0.35626  1.0000
  H   H76       1.0  0.24872  0.37218  0.35434  1.0000
  H   H77       1.0  0.25109  0.33427  0.35684  1.0000
  H   H78       1.0  0.23680  0.35435  0.38564  1.0000
  H   H79       1.0  0.33908  0.35618  0.32384  1.0000
  H   H80       1.0  0.32720  0.37422  0.35671  1.0000
  H   H81       1.0  0.32823  0.33520  0.35548  1.0000
  H   H82       1.0  0.38070  0.37593  0.35405  1.0000
  H   H83       1.0  0.38251  0.33877  0.35036  1.0000
  H   H84       1.0  0.37163  0.35374  0.38345  1.0000
  H   H85       1.0  0.48511  0.35176  0.32399  1.0000
  H   H86       1.0  0.47212  0.37356  0.35392  1.0000
  H   H87       1.0  0.47096  0.33453  0.35641  1.0000
  H   H88       1.0  0.52566  0.37200  0.35560  1.0000
  H   H89       1.0  0.52555  0.33400  0.35647  1.0000
  H   H90       1.0  0.51248  0.35386  0.38590  1.0000
  H   H91       1.0  0.62002  0.35422  0.32410  1.0000
  H   H92       1.0  0.60542  0.37580  0.35339  1.0000
  H   H93       1.0  0.60647  0.33684  0.35663  1.0000
  H   H94       1.0  0.65987  0.37628  0.35381  1.0000
  H   H95       1.0  0.66021  0.33880  0.35879  1.0000
  H   H96       1.0  0.64673  0.36140  0.38593  1.0000
  H   H97       1.0  0.76295  0.37198  0.32608  1.0000
  H   H98       1.0  0.75593  0.37988  0.36398  1.0000
  H   H99       1.0  0.73925  0.34938  0.34662  1.0000
  H   H100      1.0  0.80628  0.35547  0.35689  1.0000
  H   H101      1.0  0.78627  0.32494  0.34308  1.0000
  H   H102      1.0  0.78223  0.33534  0.37938  1.0000
  H   H103      1.0  0.20514  0.49310  0.32403  1.0000
  H   H104      1.0  0.20259  0.51482  0.35670  1.0000
  H   H105      1.0  0.19923  0.47602  0.35907  1.0000
  H   H106      1.0  0.25365  0.50984  0.34274  1.0000
  H   H107      1.0  0.25143  0.47185  0.34353  1.0000
  H   H108      1.0  0.24828  0.49205  0.37578  1.0000
  H   H109      1.0  0.34587  0.49291  0.32396  1.0000
  H   H110      1.0  0.33474  0.51204  0.35649  1.0000
  H   H111      1.0  0.33427  0.47292  0.35592  1.0000
  H   H112      1.0  0.38873  0.51051  0.35303  1.0000
  H   H113      1.0  0.38803  0.47236  0.35337  1.0000
  H   H114      1.0  0.37694  0.49201  0.38374  1.0000
  H   H115      1.0  0.48235  0.49218  0.32396  1.0000
  H   H116      1.0  0.47131  0.51172  0.35615  1.0000
  H   H117      1.0  0.47071  0.47267  0.35617  1.0000
  H   H118      1.0  0.52516  0.50993  0.35144  1.0000
  H   H119      1.0  0.52453  0.47206  0.35316  1.0000
  H   H120      1.0  0.51490  0.49254  0.38344  1.0000
  H   H121      1.0  0.61873  0.49229  0.32672  1.0000
  H   H122      1.0  0.60805  0.51189  0.35908  1.0000
  H   H123      1.0  0.60745  0.47272  0.35893  1.0000
  H   H124      1.0  0.66203  0.50983  0.35399  1.0000
  H   H125      1.0  0.66137  0.47204  0.35593  1.0000
  H   H126      1.0  0.65131  0.49276  0.38593  1.0000
  H   H127      1.0  0.76746  0.50709  0.32696  1.0000
  H   H128      1.0  0.74446  0.51695  0.35674  1.0000
  H   H129      1.0  0.74481  0.48039  0.34351  1.0000
  H   H130      1.0  0.79247  0.51024  0.37863  1.0000
  H   H131      1.0  0.79863  0.47696  0.35825  1.0000
  H   H132      1.0  0.77394  0.47958  0.38823  1.0000
  H   H133      1.0  0.21216  0.63372  0.32373  1.0000
  H   H134      1.0  0.19792  0.65075  0.35617  1.0000
  H   H135      1.0  0.19939  0.61177  0.35381  1.0000
  H   H136      1.0  0.25174  0.65235  0.35652  1.0000
  H   H137      1.0  0.25309  0.61419  0.35425  1.0000
  H   H138      1.0  0.23987  0.63103  0.38550  1.0000
  H   H139      1.0  0.34341  0.63331  0.32596  1.0000
  H   H140      1.0  0.33360  0.65065  0.35997  1.0000
  H   H141      1.0  0.33456  0.61163  0.35755  1.0000
  H   H142      1.0  0.38769  0.65092  0.35122  1.0000
  H   H143      1.0  0.38767  0.61301  0.35202  1.0000
  H   H144      1.0  0.37932  0.63293  0.38331  1.0000
  H   H145      1.0  0.48495  0.63100  0.32174  1.0000
  H   H146      1.0  0.47184  0.65270  0.35166  1.0000
  H   H147      1.0  0.47093  0.61360  0.35398  1.0000
  H   H148      1.0  0.52588  0.65096  0.35344  1.0000
  H   H149      1.0  0.52506  0.61284  0.35400  1.0000
  H   H150      1.0  0.51235  0.63273  0.38353  1.0000
  H   H151      1.0  0.62065  0.63091  0.32367  1.0000
  H   H152      1.0  0.60554  0.64800  0.35568  1.0000
  H   H153      1.0  0.60727  0.60903  0.35337  1.0000
  H   H154      1.0  0.66030  0.64882  0.35603  1.0000
  H   H155      1.0  0.66080  0.61100  0.35653  1.0000
  H   H156      1.0  0.64698  0.63022  0.38602  1.0000
  H   H157      1.0  0.76326  0.64062  0.32121  1.0000
  H   H158      1.0  0.75162  0.65817  0.35403  1.0000
  H   H159      1.0  0.74438  0.62050  0.34864  1.0000
  H   H160      1.0  0.80549  0.64660  0.35604  1.0000
  H   H161      1.0  0.79743  0.60887  0.35103  1.0000
  H   H162      1.0  0.78621  0.62782  0.38309  1.0000
  H   H163      1.0  0.34013  0.76198  0.32835  1.0000
  H   H164      1.0  0.33851  0.79408  0.35086  1.0000
  H   H165      1.0  0.33219  0.75892  0.36683  1.0000
  H   H166      1.0  0.38991  0.77875  0.34079  1.0000
  H   H167      1.0  0.38364  0.74540  0.35646  1.0000
  H   H168      1.0  0.38309  0.77612  0.37876  1.0000
  H   H169      1.0  0.47704  0.75897  0.33504  1.0000
  H   H170      1.0  0.47403  0.78944  0.35931  1.0000
  H   H171      1.0  0.47360  0.75316  0.37393  1.0000
  H   H172      1.0  0.52545  0.77921  0.34160  1.0000
  H   H173      1.0  0.52434  0.74595  0.35885  1.0000
  H   H174      1.0  0.52319  0.77685  0.38070  1.0000
  H   H175      1.0  0.60475  0.76556  0.32884  1.0000
  H   H176      1.0  0.61049  0.79709  0.35139  1.0000
  H   H177      1.0  0.60134  0.76294  0.36822  1.0000
  H   H178      1.0  0.65745  0.77415  0.33361  1.0000
  H   H179      1.0  0.64886  0.74225  0.35193  1.0000
  H   H180      1.0  0.65422  0.77328  0.37252  1.0000
  H   H181      1.0  0.34560  0.22374  0.46934  1.0000
  H   H182      1.0  0.33466  0.23315  0.50600  1.0000
  H   H183      1.0  0.33926  0.19580  0.49627  1.0000
  H   H184      1.0  0.38695  0.24182  0.50202  1.0000
  H   H185      1.0  0.39257  0.20849  0.48641  1.0000
  H   H186      1.0  0.38349  0.21131  0.52406  1.0000
  H   H187      1.0  0.48564  0.22950  0.47901  1.0000
  H   H188      1.0  0.46980  0.22112  0.51387  1.0000
  H   H189      1.0  0.47031  0.19448  0.48518  1.0000
  H   H190      1.0  0.52162  0.21602  0.52073  1.0000
  H   H191      1.0  0.52511  0.19619  0.48908  1.0000
  H   H192      1.0  0.50732  0.17928  0.52091  1.0000
  H   H193      1.0  0.61958  0.21879  0.47138  1.0000
  H   H194      1.0  0.61144  0.22806  0.50893  1.0000
  H   H195      1.0  0.62152  0.19147  0.49919  1.0000
  H   H196      1.0  0.66116  0.24510  0.49619  1.0000
  H   H197      1.0  0.67081  0.21070  0.48552  1.0000
  H   H198      1.0  0.66343  0.21817  0.52266  1.0000
  H   H199      1.0  0.21443  0.35633  0.46894  1.0000
  H   H200      1.0  0.20478  0.37616  0.50154  1.0000
  H   H201      1.0  0.20193  0.33731  0.50113  1.0000
  H   H202      1.0  0.25790  0.37198  0.49862  1.0000
  H   H203      1.0  0.25606  0.33407  0.49659  1.0000
  H   H204      1.0  0.24642  0.35192  0.52846  1.0000
  H   H205      1.0  0.35120  0.35436  0.46635  1.0000
  H   H206      1.0  0.33676  0.37162  0.49861  1.0000
  H   H207      1.0  0.33793  0.33260  0.49620  1.0000
  H   H208      1.0  0.39098  0.37244  0.49918  1.0000
  H   H209      1.0  0.39184  0.33456  0.49823  1.0000
  H   H210      1.0  0.37788  0.35226  0.52847  1.0000
  H   H211      1.0  0.48662  0.35391  0.46662  1.0000
  H   H212      1.0  0.47373  0.37354  0.49812  1.0000
  H   H213      1.0  0.47319  0.33453  0.49818  1.0000
  H   H214      1.0  0.52822  0.37148  0.49678  1.0000
  H   H215      1.0  0.52666  0.33356  0.49875  1.0000
  H   H216      1.0  0.51561  0.35448  0.52810  1.0000
  H   H217      1.0  0.62833  0.35434  0.46628  1.0000
  H   H218      1.0  0.61354  0.37598  0.49553  1.0000
  H   H219      1.0  0.61417  0.33699  0.49858  1.0000
  H   H220      1.0  0.66759  0.37653  0.49833  1.0000
  H   H221      1.0  0.66827  0.33869  0.50072  1.0000
  H   H222      1.0  0.65373  0.35919  0.52878  1.0000
  H   H223      1.0  0.75833  0.37184  0.47306  1.0000
  H   H224      1.0  0.75748  0.38117  0.51134  1.0000
  H   H225      1.0  0.74231  0.34753  0.49897  1.0000
  H   H226      1.0  0.80729  0.36364  0.49660  1.0000
  H   H227      1.0  0.79140  0.33197  0.48319  1.0000
  H   H228      1.0  0.79041  0.33791  0.52095  1.0000
  H   H229      1.0  0.21390  0.48990  0.46915  1.0000
  H   H230      1.0  0.20220  0.50954  0.50106  1.0000
  H   H231      1.0  0.20307  0.47042  0.50165  1.0000
  H   H232      1.0  0.25600  0.51014  0.49644  1.0000
  H   H233      1.0  0.25676  0.47216  0.49854  1.0000
  H   H234      1.0  0.24624  0.49265  0.52848  1.0000
  H   H235      1.0  0.34786  0.49216  0.46641  1.0000
  H   H236      1.0  0.33711  0.51182  0.49873  1.0000
  H   H237      1.0  0.33645  0.47271  0.49868  1.0000
  H   H238      1.0  0.39108  0.50986  0.49396  1.0000
  H   H239      1.0  0.39020  0.47190  0.49577  1.0000
  H   H240      1.0  0.38063  0.49260  0.52585  1.0000
  H   H241      1.0  0.49096  0.49234  0.46590  1.0000
  H   H242      1.0  0.47669  0.51204  0.49665  1.0000
  H   H243      1.0  0.47594  0.47289  0.49652  1.0000
  H   H244      1.0  0.53078  0.51016  0.49866  1.0000
  H   H245      1.0  0.52996  0.47228  0.49911  1.0000
  H   H246      1.0  0.51638  0.49195  0.52850  1.0000
  H   H247      1.0  0.62799  0.49225  0.46565  1.0000
  H   H248      1.0  0.61368  0.51196  0.49637  1.0000
  H   H249      1.0  0.61261  0.47288  0.49619  1.0000
  H   H250      1.0  0.66745  0.51028  0.49930  1.0000
  H   H251      1.0  0.66714  0.47238  0.49860  1.0000
  H   H252      1.0  0.65331  0.49075  0.52844  1.0000
  H   H253      1.0  0.77489  0.47532  0.47177  1.0000
  H   H254      1.0  0.76744  0.51280  0.47856  1.0000
  H   H255      1.0  0.74325  0.48540  0.49115  1.0000
  H   H256      1.0  0.80669  0.49348  0.51372  1.0000
  H   H257      1.0  0.78037  0.46823  0.52744  1.0000
  H   H258      1.0  0.77487  0.50495  0.53236  1.0000
  H   H259      1.0  0.21416  0.63106  0.46895  1.0000
  H   H260      1.0  0.20266  0.65036  0.50139  1.0000
  H   H261      1.0  0.20376  0.61142  0.50132  1.0000
  H   H262      1.0  0.25686  0.65074  0.49615  1.0000
  H   H263      1.0  0.25692  0.61291  0.49842  1.0000
  H   H264      1.0  0.24697  0.63375  0.52846  1.0000
  H   H265      1.0  0.35098  0.63084  0.46641  1.0000
  H   H266      1.0  0.33780  0.65261  0.49623  1.0000
  H   H267      1.0  0.33662  0.61355  0.49869  1.0000
  H   H268      1.0  0.39156  0.65074  0.49842  1.0000
  H   H269      1.0  0.39089  0.61279  0.49875  1.0000
  H   H270      1.0  0.37807  0.63217  0.52845  1.0000
  H   H271      1.0  0.48918  0.63587  0.46652  1.0000
  H   H272      1.0  0.47607  0.65330  0.49924  1.0000
  H   H273      1.0  0.47524  0.61432  0.49616  1.0000
  H   H274      1.0  0.53044  0.65094  0.49878  1.0000
  H   H275      1.0  0.52904  0.61302  0.49695  1.0000
  H   H276      1.0  0.51745  0.63108  0.52808  1.0000
  H   H277      1.0  0.62481  0.63092  0.46635  1.0000
  H   H278      1.0  0.61199  0.64989  0.49839  1.0000
  H   H279      1.0  0.60949  0.61091  0.49637  1.0000
  H   H280      1.0  0.66595  0.64518  0.49917  1.0000
  H   H281      1.0  0.66350  0.60760  0.49830  1.0000
  H   H282      1.0  0.65121  0.62633  0.52857  1.0000
  H   H283      1.0  0.76708  0.61594  0.46745  1.0000
  H   H284      1.0  0.73773  0.62556  0.49083  1.0000
  H   H285      1.0  0.76088  0.59642  0.50103  1.0000
  H   H286      1.0  0.77719  0.66052  0.49832  1.0000
  H   H287      1.0  0.80337  0.63289  0.50478  1.0000
  H   H288      1.0  0.77396  0.64050  0.52986  1.0000
  H   H289      1.0  0.33924  0.75926  0.47672  1.0000
  H   H290      1.0  0.33878  0.79174  0.49870  1.0000
  H   H291      1.0  0.33666  0.75685  0.51608  1.0000
  H   H292      1.0  0.38930  0.77874  0.48152  1.0000
  H   H293      1.0  0.38691  0.74580  0.49920  1.0000
  H   H294      1.0  0.38684  0.77705  0.52074  1.0000
  H   H295      1.0  0.47809  0.76386  0.47550  1.0000
  H   H296      1.0  0.47874  0.79360  0.50108  1.0000
  H   H297      1.0  0.47500  0.75689  0.51423  1.0000
  H   H298      1.0  0.52864  0.77845  0.48142  1.0000
  H   H299      1.0  0.52451  0.74529  0.49874  1.0000
  H   H300      1.0  0.52658  0.77608  0.52049  1.0000
  H   H301      1.0  0.61020  0.76441  0.47405  1.0000
  H   H302      1.0  0.60735  0.78629  0.50685  1.0000
  H   H303      1.0  0.60402  0.74748  0.50896  1.0000
  H   H304      1.0  0.65869  0.77896  0.48914  1.0000
  H   H305      1.0  0.65577  0.74198  0.49635  1.0000
  H   H306      1.0  0.65334  0.76655  0.52516  1.0000
  H   H307      1.0  0.34529  0.21637  0.61664  1.0000
  H   H308      1.0  0.33520  0.23282  0.65109  1.0000
  H   H309      1.0  0.33871  0.19397  0.64846  1.0000
  H   H310      1.0  0.38760  0.23899  0.64677  1.0000
  H   H311      1.0  0.39211  0.20343  0.63590  1.0000
  H   H312      1.0  0.38317  0.21110  0.67217  1.0000
  H   H313      1.0  0.46769  0.21364  0.62710  1.0000
  H   H314      1.0  0.48088  0.24347  0.64832  1.0000
  H   H315      1.0  0.47093  0.21065  0.66645  1.0000
  H   H316      1.0  0.52138  0.21593  0.62337  1.0000
  H   H317      1.0  0.50978  0.18296  0.64084  1.0000
  H   H318      1.0  0.52470  0.21310  0.66103  1.0000
  H   H319      1.0  0.61395  0.21888  0.61385  1.0000
  H   H320      1.0  0.60469  0.22613  0.65141  1.0000
  H   H321      1.0  0.61780  0.19107  0.64115  1.0000
  H   H322      1.0  0.65256  0.24801  0.64144  1.0000
  H   H323      1.0  0.66435  0.21653  0.62537  1.0000
  H   H324      1.0  0.65876  0.21860  0.66396  1.0000
  H   H325      1.0  0.21672  0.35703  0.61172  1.0000
  H   H326      1.0  0.20388  0.37420  0.64481  1.0000
  H   H327      1.0  0.20274  0.33531  0.64126  1.0000
  H   H328      1.0  0.25779  0.37218  0.64583  1.0000
  H   H329      1.0  0.25685  0.33465  0.64115  1.0000
  H   H330      1.0  0.24428  0.34993  0.67329  1.0000
  H   H331      1.0  0.35321  0.35677  0.60900  1.0000
  H   H332      1.0  0.33890  0.37403  0.64123  1.0000
  H   H333      1.0  0.34024  0.33496  0.63893  1.0000
  H   H334      1.0  0.39353  0.37473  0.64163  1.0000
  H   H335      1.0  0.39370  0.33666  0.64094  1.0000
  H   H336      1.0  0.38045  0.35490  0.67100  1.0000
  H   H337      1.0  0.49225  0.35687  0.60900  1.0000
  H   H338      1.0  0.47788  0.37405  0.64135  1.0000
  H   H339      1.0  0.47917  0.33503  0.63883  1.0000
  H   H340      1.0  0.53225  0.37488  0.64176  1.0000
  H   H341      1.0  0.53309  0.33717  0.64036  1.0000
  H   H342      1.0  0.51959  0.35452  0.67098  1.0000
  H   H343      1.0  0.62844  0.35679  0.60887  1.0000
  H   H344      1.0  0.61328  0.37815  0.63814  1.0000
  H   H345      1.0  0.61441  0.33927  0.64116  1.0000
  H   H346      1.0  0.66761  0.37914  0.64091  1.0000
  H   H347      1.0  0.66816  0.34135  0.64333  1.0000
  H   H348      1.0  0.65365  0.36193  0.67138  1.0000
  H   H349      1.0  0.77184  0.35169  0.60747  1.0000
  H   H350      1.0  0.76074  0.38088  0.63086  1.0000
  H   H351      1.0  0.74879  0.34470  0.63820  1.0000
  H   H352      1.0  0.81402  0.36431  0.64068  1.0000
  H   H353      1.0  0.79700  0.33035  0.65317  1.0000
  H   H354      1.0  0.78930  0.36189  0.67126  1.0000
  H   H355      1.0  0.21415  0.49479  0.61143  1.0000
  H   H356      1.0  0.20461  0.51434  0.64421  1.0000
  H   H357      1.0  0.20148  0.47554  0.64345  1.0000
  H   H358      1.0  0.25775  0.51015  0.64100  1.0000
  H   H359      1.0  0.25573  0.47224  0.63900  1.0000
  H   H360      1.0  0.24629  0.49035  0.67093  1.0000
  H   H361      1.0  0.35530  0.49278  0.60913  1.0000
  H   H362      1.0  0.34192  0.51191  0.64083  1.0000
  H   H363      1.0  0.34139  0.47278  0.63992  1.0000
  H   H364      1.0  0.39621  0.51013  0.64102  1.0000
  H   H365      1.0  0.39527  0.47222  0.64148  1.0000
  H   H366      1.0  0.38256  0.49207  0.67108  1.0000
  H   H367      1.0  0.49242  0.49505  0.61144  1.0000
  H   H368      1.0  0.47891  0.51260  0.64397  1.0000
  H   H369      1.0  0.47806  0.47365  0.64105  1.0000
  H   H370      1.0  0.53329  0.51031  0.64468  1.0000
  H   H371      1.0  0.53204  0.47233  0.64318  1.0000
  H   H372      1.0  0.51901  0.49046  0.67349  1.0000
  H   H373      1.0  0.63362  0.49243  0.61085  1.0000
  H   H374      1.0  0.61881  0.51205  0.64141  1.0000
  H   H375      1.0  0.61795  0.47298  0.64113  1.0000
  H   H376      1.0  0.67251  0.51072  0.64586  1.0000
  H   H377      1.0  0.67254  0.47276  0.64390  1.0000
  H   H378      1.0  0.65765  0.49015  0.67394  1.0000
  H   H379      1.0  0.77192  0.47978  0.61075  1.0000
  H   H380      1.0  0.76341  0.51466  0.62596  1.0000
  H   H381      1.0  0.74831  0.48243  0.64157  1.0000
  H   H382      1.0  0.81390  0.49785  0.64106  1.0000
  H   H383      1.0  0.79694  0.46751  0.65910  1.0000
  H   H384      1.0  0.79016  0.50225  0.67141  1.0000
  H   H385      1.0  0.21453  0.62818  0.61164  1.0000
  H   H386      1.0  0.19984  0.64989  0.64078  1.0000
  H   H387      1.0  0.20113  0.61098  0.64441  1.0000
  H   H388      1.0  0.25406  0.65048  0.64111  1.0000
  H   H389      1.0  0.25486  0.61288  0.64616  1.0000
  H   H390      1.0  0.24121  0.63550  0.67336  1.0000
  H   H391      1.0  0.35574  0.63089  0.60889  1.0000
  H   H392      1.0  0.34253  0.65267  0.63878  1.0000
  H   H393      1.0  0.34128  0.61369  0.64112  1.0000
  H   H394      1.0  0.39636  0.65081  0.64099  1.0000
  H   H395      1.0  0.39564  0.61281  0.64181  1.0000
  H   H396      1.0  0.38273  0.63297  0.67108  1.0000
  H   H397      1.0  0.49231  0.63135  0.60895  1.0000
  H   H398      1.0  0.47879  0.65037  0.64067  1.0000
  H   H399      1.0  0.47809  0.61128  0.63948  1.0000
  H   H400      1.0  0.53334  0.64805  0.64088  1.0000
  H   H401      1.0  0.53186  0.61020  0.64164  1.0000
  H   H402      1.0  0.51942  0.63041  0.67107  1.0000
  H   H403      1.0  0.63001  0.62872  0.60891  1.0000
  H   H404      1.0  0.61690  0.64757  0.64093  1.0000
  H   H405      1.0  0.61434  0.60864  0.63868  1.0000
  H   H406      1.0  0.67044  0.64357  0.64326  1.0000
  H   H407      1.0  0.66880  0.60569  0.64085  1.0000
  H   H408      1.0  0.65522  0.62329  0.67129  1.0000
  H   H409      1.0  0.77170  0.63109  0.60788  1.0000
  H   H410      1.0  0.74492  0.63551  0.63566  1.0000
  H   H411      1.0  0.76252  0.60130  0.63131  1.0000
  H   H412      1.0  0.79028  0.65736  0.65366  1.0000
  H   H413      1.0  0.81114  0.62502  0.64561  1.0000
  H   H414      1.0  0.78337  0.62645  0.67376  1.0000
  H   H415      1.0  0.34033  0.76563  0.62501  1.0000
  H   H416      1.0  0.34818  0.79877  0.64430  1.0000
  H   H417      1.0  0.34207  0.76573  0.66448  1.0000
  H   H418      1.0  0.39244  0.77654  0.62183  1.0000
  H   H419      1.0  0.38755  0.74490  0.64222  1.0000
  H   H420      1.0  0.39570  0.77633  0.66091  1.0000
  H   H421      1.0  0.47878  0.76396  0.61914  1.0000
  H   H422      1.0  0.48410  0.79441  0.64352  1.0000
  H   H423      1.0  0.47819  0.75901  0.65840  1.0000
  H   H424      1.0  0.53096  0.77380  0.62025  1.0000
  H   H425      1.0  0.52535  0.74231  0.64011  1.0000
  H   H426      1.0  0.53150  0.77396  0.65923  1.0000
  H   H427      1.0  0.61308  0.75925  0.61325  1.0000
  H   H428      1.0  0.61495  0.78684  0.64113  1.0000
  H   H429      1.0  0.61318  0.74936  0.65137  1.0000
  H   H430      1.0  0.66293  0.77444  0.61574  1.0000
  H   H431      1.0  0.66271  0.74122  0.63412  1.0000
  H   H432      1.0  0.66318  0.77397  0.65452  1.0000
  H   H433      1.0  0.36054  0.34627  0.76266  1.0000
  H   H434      1.0  0.34654  0.37405  0.78603  1.0000
  H   H435      1.0  0.34682  0.33713  0.79844  1.0000
  H   H436      1.0  0.40172  0.37136  0.78658  1.0000
  H   H437      1.0  0.39894  0.33786  0.80327  1.0000
  H   H438      1.0  0.38586  0.36925  0.82245  1.0000
  H   H439      1.0  0.51568  0.36014  0.75651  1.0000
  H   H440      1.0  0.49246  0.38479  0.77545  1.0000
  H   H441      1.0  0.48544  0.34674  0.77632  1.0000
  H   H442      1.0  0.53662  0.37673  0.80600  1.0000
  H   H443      1.0  0.53045  0.33981  0.80621  1.0000
  H   H444      1.0  0.50554  0.36383  0.82481  1.0000
  H   H445      1.0  0.63313  0.35413  0.75549  1.0000
  H   H446      1.0  0.60994  0.37695  0.77645  1.0000
  H   H447      1.0  0.61151  0.33893  0.78390  1.0000
  H   H448      1.0  0.66117  0.38131  0.79357  1.0000
  H   H449      1.0  0.66161  0.34466  0.80111  1.0000
  H   H450      1.0  0.63951  0.36895  0.82362  1.0000
  H   H451      1.0  0.35948  0.49284  0.75152  1.0000
  H   H452      1.0  0.34258  0.51443  0.77906  1.0000
  H   H453      1.0  0.34137  0.47567  0.78131  1.0000
  H   H454      1.0  0.39517  0.51285  0.78865  1.0000
  H   H455      1.0  0.39484  0.47557  0.78927  1.0000
  H   H456      1.0  0.37752  0.49474  0.81938  1.0000
  H   H457      1.0  0.50568  0.49242  0.75327  1.0000
  H   H458      1.0  0.48581  0.51415  0.77857  1.0000
  H   H459      1.0  0.48443  0.47544  0.78104  1.0000
  H   H460      1.0  0.53776  0.51207  0.79361  1.0000
  H   H461      1.0  0.53586  0.47497  0.79685  1.0000
  H   H462      1.0  0.51526  0.49796  0.82235  1.0000
  H   H463      1.0  0.64895  0.49456  0.75195  1.0000
  H   H464      1.0  0.62243  0.51246  0.77380  1.0000
  H   H465      1.0  0.62409  0.47377  0.77329  1.0000
  H   H466      1.0  0.67141  0.51218  0.79856  1.0000
  H   H467      1.0  0.67003  0.47500  0.80059  1.0000
  H   H468      1.0  0.64392  0.49644  0.82152  1.0000
  H   H469      1.0  0.36102  0.63807  0.75655  1.0000
  H   H470      1.0  0.34531  0.65331  0.78889  1.0000
  H   H471      1.0  0.34485  0.61497  0.78347  1.0000
  H   H472      1.0  0.39917  0.65078  0.79404  1.0000
  H   H473      1.0  0.39818  0.61383  0.78937  1.0000
  H   H474      1.0  0.38193  0.62844  0.82224  1.0000
  H   H475      1.0  0.50202  0.63334  0.75310  1.0000
  H   H476      1.0  0.48096  0.64790  0.78232  1.0000
  H   H477      1.0  0.48201  0.60949  0.77629  1.0000
  H   H478      1.0  0.53316  0.64595  0.79643  1.0000
  H   H479      1.0  0.53347  0.60882  0.79161  1.0000
  H   H480      1.0  0.51172  0.62313  0.82097  1.0000
  H   H481      1.0  0.62911  0.63120  0.75644  1.0000
  H   H482      1.0  0.61366  0.64799  0.78850  1.0000
  H   H483      1.0  0.61673  0.60907  0.78633  1.0000
  H   H484      1.0  0.66680  0.65252  0.78924  1.0000
  H   H485      1.0  0.67102  0.61426  0.78878  1.0000
  H   H486      1.0  0.65503  0.63105  0.81864  1.0000
  H   H487      1.0  0.12838  0.24863  0.14854  1.0000
  O   O1        1.0  0.14801  0.24455  0.15779  1.0000
  H   H488      1.0  0.14760  0.25348  0.18022  1.0000
  H   H489      1.0  0.14887  0.28540  0.22356  1.0000
  O   O2        1.0  0.14823  0.26403  0.21261  1.0000
  H   H490      1.0  0.14886  0.24851  0.22881  1.0000
  H   H491      1.0  0.13314  0.26035  0.30909  1.0000
  O   O3        1.0  0.14125  0.23958  0.31009  1.0000
  H   H492      1.0  0.16073  0.24114  0.32068  1.0000
  H   H493      1.0  0.13572  0.23556  0.37394  1.0000
  O   O4        1.0  0.14561  0.25083  0.38686  1.0000
  H   H494      1.0  0.14355  0.27499  0.37621  1.0000
  H   H495      1.0  0.15532  0.24036  0.40917  1.0000
  O   O5        1.0  0.16416  0.22737  0.43278  1.0000
  H   H496      1.0  0.15538  0.23501  0.45334  1.0000
  H   H497      1.0  0.11698  0.24309  0.48031  1.0000
  O   O6        1.0  0.13861  0.24689  0.48242  1.0000
  H   H498      1.0  0.14092  0.26932  0.48895  1.0000
  H   H499      1.0  0.15670  0.24530  0.58468  1.0000
  O   O7        1.0  0.16892  0.22985  0.56197  1.0000
  H   H500      1.0  0.16507  0.23815  0.54131  1.0000
  H   H501      1.0  0.12741  0.24311  0.60916  1.0000
  O   O8        1.0  0.14336  0.25689  0.60260  1.0000
  H   H502      1.0  0.14464  0.28231  0.61917  1.0000
  H   H503      1.0  0.16077  0.24089  0.70386  1.0000
  O   O9        1.0  0.16905  0.22711  0.68724  1.0000
  H   H504      1.0  0.16265  0.23469  0.66698  1.0000
  H   H505      1.0  0.13347  0.25023  0.74628  1.0000
  O   O10       1.0  0.14352  0.26211  0.73018  1.0000
  H   H506      1.0  0.14731  0.28300  0.73887  1.0000
  H   H507      1.0  0.12028  0.25068  0.83083  1.0000
  O   O11       1.0  0.13880  0.26176  0.83508  1.0000
  H   H508      1.0  0.13598  0.28536  0.83078  1.0000
  H   H509      1.0  0.13346  0.34010  0.16131  1.0000
  O   O12       1.0  0.14129  0.31854  0.15764  1.0000
  H   H510      1.0  0.15152  0.31194  0.17664  1.0000
  H   H511      1.0  0.13084  0.32684  0.23420  1.0000
  O   O13       1.0  0.14797  0.31386  0.23994  1.0000
  H   H512      1.0  0.16609  0.32937  0.24201  1.0000
  H   H513      1.0  0.13298  0.33779  0.30411  1.0000
  O   O14       1.0  0.13258  0.31475  0.30632  1.0000
  H   H514      1.0  0.13859  0.30722  0.28562  1.0000
  H   H515      1.0  0.13793  0.30254  0.33912  1.0000
  O   O15       1.0  0.14121  0.29898  0.36234  1.0000
  H   H516      1.0  0.13887  0.31959  0.37329  1.0000
  H   H517      1.0  0.12322  0.33830  0.44051  1.0000
  O   O16       1.0  0.12038  0.31612  0.44273  1.0000
  H   H518      1.0  0.12584  0.31111  0.46467  1.0000
  H   H519      1.0  0.12979  0.30470  0.52236  1.0000
  O   O17       1.0  0.13922  0.30351  0.49997  1.0000
  H   H520      1.0  0.15856  0.31402  0.50115  1.0000
  H   H521      1.0  0.12257  0.33151  0.55886  1.0000
  O   O18       1.0  0.12036  0.30897  0.55274  1.0000
  H   H522      1.0  0.12584  0.29504  0.56960  1.0000
  H   H523      1.0  0.13569  0.30805  0.65532  1.0000
  O   O19       1.0  0.14363  0.30375  0.63228  1.0000
  H   H524      1.0  0.14858  0.32499  0.62203  1.0000
  H   H525      1.0  0.13365  0.34356  0.68617  1.0000
  O   O20       1.0  0.12734  0.32095  0.68260  1.0000
  H   H526      1.0  0.13055  0.30942  0.70171  1.0000
  H   H527      1.0  0.14035  0.34127  0.75555  1.0000
  O   O21       1.0  0.15074  0.32122  0.75255  1.0000
  H   H528      1.0  0.17223  0.32678  0.75107  1.0000
  H   H529      1.0  0.12896  0.33737  0.82495  1.0000
  O   O22       1.0  0.13904  0.31599  0.82232  1.0000
  H   H530      1.0  0.14887  0.31658  0.80182  1.0000
  H   H531      1.0  0.12384  0.39243  0.16161  1.0000
  O   O23       1.0  0.12732  0.37289  0.17241  1.0000
  H   H532      1.0  0.11789  0.37344  0.19407  1.0000
  H   H533      1.0  0.09887  0.37370  0.24371  1.0000
  O   O24       1.0  0.11454  0.37624  0.22813  1.0000
  H   H534      1.0  0.12509  0.39687  0.23160  1.0000
  H   H535      1.0  0.13958  0.39335  0.29817  1.0000
  O   O25       1.0  0.13984  0.37150  0.29173  1.0000
  H   H536      1.0  0.15576  0.36910  0.27577  1.0000
  H   H537      1.0  0.12533  0.36644  0.36586  1.0000
  O   O26       1.0  0.13649  0.35326  0.38001  1.0000
  H   H538      1.0  0.13536  0.36243  0.40146  1.0000
  H   H539      1.0  0.12939  0.39968  0.43687  1.0000
  O   O27       1.0  0.13675  0.37797  0.43505  1.0000
  H   H540      1.0  0.15862  0.37922  0.43848  1.0000
  H   H541      1.0  0.13356  0.36206  0.49213  1.0000
  O   O28       1.0  0.14831  0.36846  0.50758  1.0000
  H   H542      1.0  0.15353  0.39342  0.50574  1.0000
  H   H543      1.0  0.11682  0.38153  0.56264  1.0000
  O   O29       1.0  0.13176  0.36537  0.56011  1.0000
  H   H544      1.0  0.14042  0.36623  0.53573  1.0000
  H   H545      1.0  0.14672  0.37173  0.62662  1.0000
  O   O30       1.0  0.15273  0.35556  0.61237  1.0000
  H   H546      1.0  0.14635  0.36115  0.58972  1.0000
  H   H547      1.0  0.14013  0.39561  0.69109  1.0000
  O   O31       1.0  0.14611  0.37325  0.69270  1.0000
  H   H548      1.0  0.16403  0.37201  0.70603  1.0000
  H   H549      1.0  0.10919  0.37886  0.74653  1.0000
  O   O32       1.0  0.12495  0.37825  0.76237  1.0000
  H   H550      1.0  0.13430  0.40019  0.76317  1.0000
  H   H551      1.0  0.12370  0.38665  0.83117  1.0000
  O   O33       1.0  0.11803  0.36802  0.82003  1.0000
  H   H552      1.0  0.11885  0.37214  0.79673  1.0000
  H   H553      1.0  0.13503  0.45583  0.16437  1.0000
  O   O34       1.0  0.13877  0.43288  0.16609  1.0000
  H   H554      1.0  0.14181  0.42884  0.18863  1.0000
  H   H555      1.0  0.13316  0.44937  0.23324  1.0000
  O   O35       1.0  0.14133  0.42714  0.23003  1.0000
  H   H556      1.0  0.16156  0.42595  0.23883  1.0000
  H   H557      1.0  0.14668  0.46262  0.30338  1.0000
  O   O36       1.0  0.14863  0.43193  0.30990  1.0000
  H   H558      1.0  0.14743  0.43065  0.33835  1.0000
  H   H559      1.0  0.13846  0.45592  0.37403  1.0000
  O   O37       1.0  0.14589  0.43211  0.36514  1.0000
  H   H560      1.0  0.16309  0.42355  0.37659  1.0000
  H   H561      1.0  0.11463  0.45304  0.43869  1.0000
  O   O38       1.0  0.12975  0.43708  0.44251  1.0000
  H   H562      1.0  0.14932  0.44530  0.43586  1.0000
  H   H563      1.0  0.14893  0.43357  0.48992  1.0000
  O   O39       1.0  0.15724  0.42230  0.50758  1.0000
  H   H564      1.0  0.14920  0.43123  0.52972  1.0000
  H   H565      1.0  0.13284  0.46549  0.55413  1.0000
  O   O40       1.0  0.13644  0.44283  0.55556  1.0000
  H   H566      1.0  0.14017  0.43831  0.57851  1.0000
  H   H567      1.0  0.14421  0.45578  0.62887  1.0000
  O   O41       1.0  0.14608  0.43693  0.61484  1.0000
  H   H568      1.0  0.16664  0.42914  0.61657  1.0000
  H   H569      1.0  0.12838  0.44548  0.67631  1.0000
  O   O42       1.0  0.13661  0.43192  0.69244  1.0000
  H   H570      1.0  0.15605  0.44070  0.69892  1.0000
  H   H571      1.0  0.13510  0.45282  0.76142  1.0000
  O   O43       1.0  0.14588  0.43219  0.76740  1.0000
  H   H572      1.0  0.16702  0.43378  0.76109  1.0000
  H   H573      1.0  0.13617  0.46130  0.83058  1.0000
  O   O44       1.0  0.14150  0.43826  0.83119  1.0000
  H   H574      1.0  0.14463  0.43301  0.80897  1.0000
  H   H575      1.0  0.13285  0.51447  0.16549  1.0000
  O   O45       1.0  0.13815  0.48977  0.17358  1.0000
  H   H576      1.0  0.12901  0.48805  0.19488  1.0000
  H   H577      1.0  0.11148  0.48999  0.24596  1.0000
  O   O46       1.0  0.12714  0.48158  0.23264  1.0000
  H   H578      1.0  0.14866  0.49192  0.23806  1.0000
  H   H579      1.0  0.13929  0.51085  0.30848  1.0000
  O   O47       1.0  0.14838  0.48623  0.29729  1.0000
  H   H580      1.0  0.16325  0.48815  0.28044  1.0000
  H   H581      1.0  0.12800  0.49688  0.36658  1.0000
  O   O48       1.0  0.13194  0.48154  0.38244  1.0000
  H   H582      1.0  0.12823  0.49056  0.40656  1.0000
  H   H583      1.0  0.11985  0.52456  0.43145  1.0000
  O   O49       1.0  0.12260  0.50179  0.43271  1.0000
  H   H584      1.0  0.13157  0.49861  0.45524  1.0000
  H   H585      1.0  0.13435  0.49481  0.50481  1.0000
  O   O50       1.0  0.14347  0.50122  0.48510  1.0000
  H   H586      1.0  0.15141  0.52297  0.48881  1.0000
  H   H587      1.0  0.12677  0.52184  0.55618  1.0000
  O   O51       1.0  0.13673  0.50141  0.55248  1.0000
  H   H588      1.0  0.15812  0.50492  0.55673  1.0000
  H   H589      1.0  0.14427  0.49013  0.67347  1.0000
  O   O52       1.0  0.14120  0.48394  0.65011  1.0000
  H   H590      1.0  0.13340  0.50186  0.63928  1.0000
  H   H591      1.0  0.14165  0.52464  0.69865  1.0000
  O   O53       1.0  0.14590  0.50170  0.70520  1.0000
  H   H592      1.0  0.16576  0.50035  0.71813  1.0000
  H   H593      1.0  0.10111  0.48776  0.75636  1.0000
  O   O54       1.0  0.12265  0.48378  0.75485  1.0000
  H   H594      1.0  0.13037  0.49242  0.73334  1.0000
  H   H595      1.0  0.13284  0.51712  0.82790  1.0000
  O   O55       1.0  0.13445  0.49438  0.82084  1.0000
  H   H596      1.0  0.13101  0.49465  0.79828  1.0000
  H   H597      1.0  0.12849  0.55601  0.14825  1.0000
  O   O56       1.0  0.12881  0.54177  0.16552  1.0000
  H   H598      1.0  0.13463  0.55020  0.18912  1.0000
  H   H599      1.0  0.13952  0.57645  0.22441  1.0000
  O   O57       1.0  0.14582  0.55590  0.21513  1.0000
  H   H600      1.0  0.16833  0.55686  0.20904  1.0000
  H   H601      1.0  0.12521  0.54746  0.30153  1.0000
  O   O58       1.0  0.13194  0.53340  0.31754  1.0000
  H   H602      1.0  0.14128  0.54477  0.34186  1.0000
  H   H603      1.0  0.13960  0.57967  0.37147  1.0000
  O   O59       1.0  0.14851  0.55523  0.36491  1.0000
  H   H604      1.0  0.16917  0.55195  0.37184  1.0000
  H   H605      1.0  0.11653  0.57830  0.42880  1.0000
  O   O60       1.0  0.12736  0.56066  0.43739  1.0000
  H   H606      1.0  0.14906  0.56402  0.43363  1.0000
  H   H607      1.0  0.15330  0.57317  0.49165  1.0000
  O   O61       1.0  0.16220  0.55349  0.49767  1.0000
  H   H608      1.0  0.17542  0.55669  0.51603  1.0000
  H   H609      1.0  0.11013  0.57357  0.56876  1.0000
  O   O62       1.0  0.12495  0.55814  0.56261  1.0000
  H   H610      1.0  0.14444  0.56439  0.57141  1.0000
  H   H611      1.0  0.15134  0.58491  0.62660  1.0000
  O   O63       1.0  0.15977  0.56312  0.63241  1.0000
  H   H612      1.0  0.17857  0.55905  0.62154  1.0000
  H   H613      1.0  0.12816  0.57176  0.69092  1.0000
  O   O64       1.0  0.13658  0.55288  0.68275  1.0000
  H   H614      1.0  0.14767  0.55655  0.66170  1.0000
  H   H615      1.0  0.12998  0.57901  0.76391  1.0000
  O   O65       1.0  0.13903  0.55815  0.76989  1.0000
  H   H616      1.0  0.15932  0.55631  0.76140  1.0000
  H   H617      1.0  0.13115  0.56924  0.83671  1.0000
  O   O66       1.0  0.13429  0.54955  0.82645  1.0000
  H   H618      1.0  0.13714  0.55373  0.80300  1.0000
  H   H619      1.0  0.12824  0.64322  0.16954  1.0000
  O   O67       1.0  0.13203  0.61990  0.16511  1.0000
  H   H620      1.0  0.13095  0.61041  0.18574  1.0000
  H   H621      1.0  0.11709  0.62091  0.24100  1.0000
  O   O68       1.0  0.13424  0.60988  0.23254  1.0000
  H   H622      1.0  0.15372  0.62114  0.23871  1.0000
  H   H623      1.0  0.13052  0.64162  0.30804  1.0000
  O   O69       1.0  0.13658  0.62233  0.31997  1.0000
  H   H624      1.0  0.15196  0.61129  0.30833  1.0000
  H   H625      1.0  0.13218  0.61576  0.35350  1.0000
  O   O70       1.0  0.13193  0.60508  0.37484  1.0000
  H   H626      1.0  0.12912  0.61601  0.39588  1.0000
  H   H627      1.0  0.12342  0.65078  0.42937  1.0000
  O   O71       1.0  0.12507  0.62753  0.42752  1.0000
  H   H628      1.0  0.13754  0.62117  0.44525  1.0000
  H   H629      1.0  0.11782  0.62122  0.49554  1.0000
  O   O72       1.0  0.13974  0.62307  0.49518  1.0000
  H   H630      1.0  0.14436  0.64562  0.49672  1.0000
  H   H631      1.0  0.12735  0.65054  0.56411  1.0000
  O   O73       1.0  0.12736  0.62725  0.56446  1.0000
  H   H632      1.0  0.13613  0.62034  0.54479  1.0000
  H   H633      1.0  0.14257  0.63326  0.62886  1.0000
  O   O74       1.0  0.13901  0.61296  0.61924  1.0000
  H   H634      1.0  0.13376  0.61700  0.59656  1.0000
  H   H635      1.0  0.13498  0.64704  0.70057  1.0000
  O   O75       1.0  0.13540  0.62351  0.70495  1.0000
  H   H636      1.0  0.15592  0.61628  0.70129  1.0000
  H   H637      1.0  0.09627  0.61343  0.75890  1.0000
  O   O76       1.0  0.11784  0.60983  0.75747  1.0000
  H   H638      1.0  0.12530  0.61656  0.73544  1.0000
  H   H639      1.0  0.13089  0.63817  0.82922  1.0000
  O   O77       1.0  0.13248  0.61621  0.82364  1.0000
  H   H640      1.0  0.13002  0.61560  0.80087  1.0000
  H   H641      1.0  0.12281  0.69293  0.17435  1.0000
  O   O78       1.0  0.12480  0.67251  0.18359  1.0000
  H   H642      1.0  0.13001  0.67542  0.20657  1.0000
  H   H643      1.0  0.13408  0.67992  0.26132  1.0000
  O   O79       1.0  0.14041  0.68195  0.23877  1.0000
  H   H644      1.0  0.16210  0.68551  0.23877  1.0000
  H   H645      1.0  0.10070  0.67732  0.29314  1.0000
  O   O80       1.0  0.12233  0.67395  0.29527  1.0000
  H   H646      1.0  0.12819  0.68317  0.31799  1.0000
  H   H647      1.0  0.12965  0.71512  0.35383  1.0000
  O   O81       1.0  0.13189  0.69159  0.34743  1.0000
  H   H648      1.0  0.14523  0.68043  0.36121  1.0000
  H   H649      1.0  0.12609  0.70441  0.43113  1.0000
  O   O82       1.0  0.12732  0.68395  0.44014  1.0000
  H   H650      1.0  0.13791  0.68482  0.46069  1.0000
  H   H651      1.0  0.14261  0.70237  0.50386  1.0000
  O   O83       1.0  0.15261  0.68194  0.49720  1.0000
  H   H652      1.0  0.17401  0.68658  0.49433  1.0000
  H   H653      1.0  0.13030  0.70676  0.56604  1.0000
  O   O84       1.0  0.13677  0.68419  0.56522  1.0000
  H   H654      1.0  0.15796  0.68481  0.55843  1.0000
  H   H655      1.0  0.14224  0.68943  0.64147  1.0000
  O   O85       1.0  0.15043  0.67400  0.62742  1.0000
  H   H656      1.0  0.14483  0.67977  0.60588  1.0000
  H   H657      1.0  0.13363  0.70142  0.69585  1.0000
  O   O86       1.0  0.14134  0.67910  0.69757  1.0000
  H   H658      1.0  0.16334  0.68058  0.69874  1.0000
  H   H659      1.0  0.13586  0.68255  0.75084  1.0000
  O   O87       1.0  0.14818  0.67400  0.76740  1.0000
  H   H660      1.0  0.16385  0.65999  0.75816  1.0000
  H   H661      1.0  0.13186  0.70045  0.82446  1.0000
  O   O88       1.0  0.14124  0.67893  0.82490  1.0000
  H   H662      1.0  0.14455  0.67514  0.80164  1.0000
  H   H663      1.0  0.10464  0.74651  0.17133  1.0000
  O   O89       1.0  0.12473  0.73833  0.17501  1.0000
  H   H664      1.0  0.13102  0.74439  0.19713  1.0000
  H   H665      1.0  0.13749  0.75414  0.25009  1.0000
  O   O90       1.0  0.14368  0.75551  0.22768  1.0000
  H   H666      1.0  0.16493  0.74937  0.22623  1.0000
  H   H667      1.0  0.12950  0.75420  0.31033  1.0000
  O   O91       1.0  0.13896  0.75059  0.29001  1.0000
  H   H668      1.0  0.15785  0.73941  0.29400  1.0000
  H   H669      1.0  0.11716  0.75365  0.37664  1.0000
  O   O92       1.0  0.12963  0.74556  0.35995  1.0000
  H   H670      1.0  0.15284  0.75150  0.36391  1.0000
  H   H671      1.0  0.15394  0.77831  0.43652  1.0000
  O   O93       1.0  0.14368  0.75808  0.43501  1.0000
  H   H672      1.0  0.16082  0.74390  0.43407  1.0000
  H   H673      1.0  0.11958  0.74216  0.49128  1.0000
  O   O94       1.0  0.13403  0.73580  0.50714  1.0000
  H   H674      1.0  0.15644  0.74581  0.50134  1.0000
  H   H675      1.0  0.12870  0.74190  0.54000  1.0000
  O   O95       1.0  0.13051  0.74165  0.56407  1.0000
  H   H676      1.0  0.15113  0.74822  0.56857  1.0000
  H   H677      1.0  0.12503  0.74446  0.61564  1.0000
  O   O96       1.0  0.13649  0.74324  0.63492  1.0000
  H   H678      1.0  0.15904  0.74467  0.63119  1.0000
  H   H679      1.0  0.12969  0.73949  0.66813  1.0000
  O   O97       1.0  0.13022  0.73456  0.69154  1.0000
  H   H680      1.0  0.14662  0.74650  0.70082  1.0000
  H   H681      1.0  0.11712  0.74936  0.74170  1.0000
  O   O98       1.0  0.12980  0.75317  0.75978  1.0000
  H   H682      1.0  0.15124  0.75830  0.75239  1.0000
  H   H683      1.0  0.12627  0.73995  0.79243  1.0000
  O   O99       1.0  0.12979  0.73341  0.81497  1.0000
  H   H684      1.0  0.15137  0.73941  0.81938  1.0000
  H   H685      1.0  0.18582  0.19668  0.10620  1.0000
  O   O100      1.0  0.19669  0.18281  0.12006  1.0000
  H   H686      1.0  0.19151  0.18908  0.14138  1.0000
  H   H687      1.0  0.16460  0.19626  0.18848  1.0000
  O   O101      1.0  0.18638  0.19330  0.18942  1.0000
  H   H688      1.0  0.19635  0.21519  0.18707  1.0000
  H   H689      1.0  0.20223  0.18649  0.22151  1.0000
  O   O102      1.0  0.21531  0.18280  0.24020  1.0000
  H   H690      1.0  0.22152  0.20242  0.24899  1.0000
  H   H691      1.0  0.19425  0.17747  0.33416  1.0000
  O   O103      1.0  0.20375  0.17512  0.31243  1.0000
  H   H692      1.0  0.19304  0.18604  0.29624  1.0000
  H   H693      1.0  0.18813  0.17489  0.38504  1.0000
  O   O104      1.0  0.18520  0.18522  0.36518  1.0000
  H   H694      1.0  0.19354  0.20684  0.36682  1.0000
  H   H695      1.0  0.18069  0.21132  0.43450  1.0000
  O   O105      1.0  0.20842  0.19001  0.43497  1.0000
  H   H696      1.0  0.22773  0.20103  0.43595  1.0000
  H   H697      1.0  0.15853  0.19596  0.49830  1.0000
  O   O106      1.0  0.17796  0.18546  0.49748  1.0000
  H   H698      1.0  0.19292  0.20204  0.49385  1.0000
  H   H699      1.0  0.18865  0.21570  0.56047  1.0000
  O   O107      1.0  0.21313  0.19758  0.55768  1.0000
  H   H700      1.0  0.22928  0.20152  0.57260  1.0000
  H   H701      1.0  0.17798  0.18513  0.60098  1.0000
  O   O108      1.0  0.18506  0.18757  0.62230  1.0000
  H   H702      1.0  0.19534  0.20802  0.62365  1.0000
  H   H703      1.0  0.19727  0.20630  0.68396  1.0000
  O   O109      1.0  0.21767  0.19521  0.68268  1.0000
  H   H704      1.0  0.23071  0.20375  0.69887  1.0000
  H   H705      1.0  0.19509  0.18098  0.78450  1.0000
  O   O110      1.0  0.21517  0.18040  0.76513  1.0000
  H   H706      1.0  0.21287  0.20236  0.75605  1.0000
  H   H707      1.0  0.18411  0.19143  0.83141  1.0000
  O   O111      1.0  0.17813  0.18507  0.80505  1.0000
  H   H708      1.0  0.15920  0.17419  0.80312  1.0000
  H   H709      1.0  0.18159  0.21651  0.86899  1.0000
  O   O112      1.0  0.18989  0.19746  0.85747  1.0000
  H   H710      1.0  0.20937  0.18904  0.86737  1.0000
  H   H711      1.0  0.17195  0.25512  0.13609  1.0000
  O   O113      1.0  0.18754  0.26222  0.11987  1.0000
  H   H712      1.0  0.18614  0.28575  0.11607  1.0000
  H   H713      1.0  0.19608  0.26257  0.19348  1.0000
  O   O114      1.0  0.20823  0.24461  0.18763  1.0000
  H   H714      1.0  0.22958  0.25054  0.18625  1.0000
  H   H715      1.0  0.20518  0.25320  0.38103  1.0000
  O   O115      1.0  0.20842  0.23731  0.36513  1.0000
  H   H716      1.0  0.22130  0.24552  0.34863  1.0000
  H   H717      1.0  0.20526  0.25278  0.47174  1.0000
  O   O116      1.0  0.20835  0.23970  0.49000  1.0000
  H   H718      1.0  0.22542  0.24825  0.50146  1.0000
  H   H719      1.0  0.21005  0.25553  0.60857  1.0000
  O   O117      1.0  0.21077  0.23993  0.62513  1.0000
  H   H720      1.0  0.21824  0.24989  0.64399  1.0000
  H   H721      1.0  0.20214  0.24394  0.77564  1.0000
  O   O118      1.0  0.20824  0.23475  0.75525  1.0000
  H   H722      1.0  0.20916  0.25067  0.73911  1.0000
  H   H723      1.0  0.17621  0.25540  0.82075  1.0000
  O   O119      1.0  0.19669  0.25913  0.81245  1.0000
  H   H724      1.0  0.20036  0.28362  0.80813  1.0000
  H   H725      1.0  0.15440  0.25236  0.86562  1.0000
  O   O120      1.0  0.16895  0.24464  0.88227  1.0000
  H   H726      1.0  0.18063  0.26249  0.88898  1.0000
  H   H727      1.0  0.16793  0.31915  0.13571  1.0000
  O   O121      1.0  0.18523  0.31866  0.11997  1.0000
  H   H728      1.0  0.18388  0.33911  0.10890  1.0000
  H   H729      1.0  0.19933  0.33853  0.18598  1.0000
  O   O122      1.0  0.20144  0.31608  0.18764  1.0000
  H   H730      1.0  0.22234  0.31205  0.19336  1.0000
  H   H731      1.0  0.20024  0.33324  0.80947  1.0000
  O   O123      1.0  0.20606  0.31131  0.79993  1.0000
  H   H732      1.0  0.22346  0.31277  0.78628  1.0000
  H   H733      1.0  0.17265  0.31249  0.85548  1.0000
  O   O124      1.0  0.18747  0.31121  0.87252  1.0000
  H   H734      1.0  0.18891  0.33207  0.88101  1.0000
  H   H735      1.0  0.16601  0.37654  0.08134  1.0000
  O   O125      1.0  0.17820  0.37309  0.09977  1.0000
  H   H736      1.0  0.18034  0.39364  0.11110  1.0000
  H   H737      1.0  0.16496  0.37690  0.18248  1.0000
  O   O126      1.0  0.18521  0.37793  0.19253  1.0000
  H   H738      1.0  0.19540  0.39899  0.18944  1.0000
  H   H739      1.0  0.18580  0.36640  0.22311  1.0000
  O   O127      1.0  0.18507  0.35554  0.24505  1.0000
  H   H740      1.0  0.20549  0.35243  0.25305  1.0000
  H   H741      1.0  0.20513  0.38612  0.75835  1.0000
  O   O128      1.0  0.20354  0.36789  0.74514  1.0000
  H   H742      1.0  0.22371  0.36450  0.73650  1.0000
  H   H743      1.0  0.18642  0.36650  0.84277  1.0000
  O   O129      1.0  0.19212  0.36092  0.82038  1.0000
  H   H744      1.0  0.20047  0.37975  0.81103  1.0000
  H   H745      1.0  0.15908  0.37665  0.88368  1.0000
  O   O130      1.0  0.17930  0.37892  0.87517  1.0000
  H   H746      1.0  0.18396  0.40248  0.87524  1.0000
  H   H747      1.0  0.16401  0.42723  0.14391  1.0000
  O   O131      1.0  0.18052  0.42478  0.12738  1.0000
  H   H748      1.0  0.18459  0.44492  0.11857  1.0000
  H   H749      1.0  0.20133  0.45095  0.18862  1.0000
  O   O132      1.0  0.21059  0.42960  0.19009  1.0000
  H   H750      1.0  0.23108  0.43119  0.19825  1.0000
  H   H751      1.0  0.20330  0.44104  0.80187  1.0000
  O   O133      1.0  0.21070  0.41981  0.79988  1.0000
  H   H752      1.0  0.23270  0.42139  0.79869  1.0000
  H   H753      1.0  0.16770  0.43604  0.85137  1.0000
  O   O134      1.0  0.18519  0.43459  0.86746  1.0000
  H   H754      1.0  0.18782  0.45499  0.87687  1.0000
  H   H755      1.0  0.17742  0.50229  0.09059  1.0000
  O   O135      1.0  0.19034  0.50201  0.10880  1.0000
  H   H756      1.0  0.19064  0.52424  0.11877  1.0000
  H   H757      1.0  0.16585  0.48759  0.17850  1.0000
  O   O136      1.0  0.18990  0.48401  0.18769  1.0000
  H   H758      1.0  0.20547  0.49535  0.17640  1.0000
  H   H759      1.0  0.18655  0.49184  0.21878  1.0000
  O   O137      1.0  0.17818  0.49736  0.24168  1.0000
  H   H760      1.0  0.18615  0.51724  0.24847  1.0000
  H   H761      1.0  0.19180  0.49268  0.76320  1.0000
  O   O138      1.0  0.19001  0.49639  0.73987  1.0000
  H   H762      1.0  0.21030  0.49967  0.73176  1.0000
  H   H763      1.0  0.18324  0.49486  0.81124  1.0000
  O   O139      1.0  0.19903  0.48641  0.79761  1.0000
  H   H764      1.0  0.21906  0.49523  0.80364  1.0000
  H   H765      1.0  0.16165  0.50027  0.87114  1.0000
  O   O140      1.0  0.18274  0.49888  0.87744  1.0000
  H   H766      1.0  0.19048  0.52026  0.87655  1.0000
  H   H767      1.0  0.19488  0.55245  0.15605  1.0000
  O   O141      1.0  0.19448  0.55306  0.13263  1.0000
  H   H768      1.0  0.18091  0.57211  0.12659  1.0000
  H   H769      1.0  0.19884  0.58488  0.18843  1.0000
  O   O142      1.0  0.19701  0.56068  0.19260  1.0000
  H   H770      1.0  0.21523  0.55441  0.20366  1.0000
  H   H771      1.0  0.20376  0.57962  0.80419  1.0000
  O   O143      1.0  0.20771  0.55669  0.79901  1.0000
  H   H772      1.0  0.21842  0.55611  0.77920  1.0000
  H   H773      1.0  0.19796  0.55735  0.84344  1.0000
  O   O144      1.0  0.20104  0.55861  0.86618  1.0000
  H   H774      1.0  0.19325  0.57912  0.87332  1.0000
  H   H775      1.0  0.14888  0.60733  0.14080  1.0000
  O   O145      1.0  0.16195  0.59758  0.12264  1.0000
  H   H776      1.0  0.16555  0.61283  0.10662  1.0000
  H   H777      1.0  0.18558  0.62866  0.17621  1.0000
  O   O146      1.0  0.20167  0.61486  0.18251  1.0000
  H   H778      1.0  0.22263  0.62485  0.18163  1.0000
  H   H779      1.0  0.19190  0.64803  0.23154  1.0000
  O   O147      1.0  0.18301  0.63453  0.24741  1.0000
  H   H780      1.0  0.19786  0.61896  0.25395  1.0000
  H   H781      1.0  0.20517  0.65553  0.76826  1.0000
  O   O148      1.0  0.19443  0.64480  0.75036  1.0000
  H   H782      1.0  0.20469  0.62580  0.74406  1.0000
  H   H783      1.0  0.18395  0.62058  0.82370  1.0000
  O   O149      1.0  0.20135  0.60996  0.81503  1.0000
  H   H784      1.0  0.22136  0.62116  0.81603  1.0000
  H   H785      1.0  0.16520  0.61641  0.90094  1.0000
  O   O150      1.0  0.18282  0.61723  0.88750  1.0000
  H   H786      1.0  0.18374  0.63879  0.87899  1.0000
  H   H787      1.0  0.18130  0.67814  0.14822  1.0000
  O   O151      1.0  0.18417  0.68472  0.12650  1.0000
  H   H788      1.0  0.17267  0.70624  0.12392  1.0000
  H   H789      1.0  0.18837  0.70348  0.19128  1.0000
  O   O152      1.0  0.19447  0.68157  0.19254  1.0000
  H   H790      1.0  0.21651  0.68279  0.19388  1.0000
  H   H791      1.0  0.19738  0.69011  0.80371  1.0000
  O   O153      1.0  0.21301  0.67679  0.79505  1.0000
  H   H792      1.0  0.23245  0.68748  0.79600  1.0000
  H   H793      1.0  0.16561  0.67561  0.84828  1.0000
  O   O154      1.0  0.18269  0.67397  0.86477  1.0000
  H   H794      1.0  0.18237  0.69322  0.87669  1.0000
  H   H795      1.0  0.14446  0.73499  0.14420  1.0000
  O   O155      1.0  0.15748  0.73357  0.12507  1.0000
  H   H796      1.0  0.16746  0.75414  0.12261  1.0000
  H   H797      1.0  0.18648  0.76364  0.18131  1.0000
  O   O156      1.0  0.19450  0.74341  0.18756  1.0000
  H   H798      1.0  0.21649  0.74435  0.18612  1.0000
  H   H799      1.0  0.18431  0.78158  0.37399  1.0000
  O   O157      1.0  0.18138  0.75871  0.36842  1.0000
  H   H800      1.0  0.19571  0.74470  0.37814  1.0000
  H   H801      1.0  0.18568  0.77799  0.50691  1.0000
  O   O158      1.0  0.18297  0.75584  0.49765  1.0000
  H   H802      1.0  0.19845  0.74211  0.50643  1.0000
  H   H803      1.0  0.20282  0.76186  0.61586  1.0000
  O   O159      1.0  0.19232  0.74796  0.62996  1.0000
  H   H804      1.0  0.20702  0.73210  0.63604  1.0000
  H   H805      1.0  0.19353  0.78542  0.74651  1.0000
  O   O160      1.0  0.18287  0.76541  0.73992  1.0000
  H   H806      1.0  0.19755  0.74885  0.74119  1.0000
  H   H807      1.0  0.17963  0.77282  0.81887  1.0000
  O   O161      1.0  0.18528  0.75071  0.82475  1.0000
  H   H808      1.0  0.20673  0.74760  0.81638  1.0000
  H   H809      1.0  0.18689  0.74191  0.85603  1.0000
  O   O162      1.0  0.19134  0.73705  0.87941  1.0000
  H   H810      1.0  0.19142  0.75904  0.88878  1.0000
  H   H811      1.0  0.16960  0.80555  0.11209  1.0000
  O   O163      1.0  0.17814  0.79077  0.12652  1.0000
  H   H812      1.0  0.17589  0.79874  0.14876  1.0000
  H   H813      1.0  0.15022  0.80125  0.18889  1.0000
  O   O164      1.0  0.17105  0.80488  0.18278  1.0000
  H   H814      1.0  0.18281  0.81090  0.20319  1.0000
  H   H815      1.0  0.19788  0.80307  0.24847  1.0000
  O   O165      1.0  0.20144  0.81514  0.22985  1.0000
  H   H816      1.0  0.22258  0.80992  0.21875  1.0000
  H   H817      1.0  0.21588  0.83002  0.31824  1.0000
  O   O166      1.0  0.19921  0.81241  0.32261  1.0000
  H   H818      1.0  0.20497  0.79252  0.31419  1.0000
  H   H819      1.0  0.16579  0.82358  0.37634  1.0000
  O   O167      1.0  0.18568  0.81409  0.37622  1.0000
  H   H820      1.0  0.19287  0.81386  0.35100  1.0000
  H   H821      1.0  0.18918  0.80888  0.41239  1.0000
  O   O168      1.0  0.18533  0.80490  0.43515  1.0000
  H   H822      1.0  0.20246  0.79347  0.44338  1.0000
  H   H823      1.0  0.17368  0.82108  0.51320  1.0000
  O   O169      1.0  0.18964  0.80742  0.52014  1.0000
  H   H824      1.0  0.21202  0.81329  0.50932  1.0000
  H   H825      1.0  0.19726  0.80595  0.55537  1.0000
  O   O170      1.0  0.20623  0.80488  0.57733  1.0000
  H   H826      1.0  0.22580  0.79415  0.57572  1.0000
  H   H827      1.0  0.16406  0.80865  0.63121  1.0000
  O   O171      1.0  0.18505  0.81488  0.62983  1.0000
  H   H828      1.0  0.19325  0.81111  0.60758  1.0000
  H   H829      1.0  0.20172  0.81374  0.65814  1.0000
  O   O172      1.0  0.21539  0.81467  0.67763  1.0000
  H   H830      1.0  0.21353  0.79679  0.69100  1.0000
  H   H831      1.0  0.21217  0.83421  0.75244  1.0000
  O   O173      1.0  0.20826  0.81227  0.76032  1.0000
  H   H832      1.0  0.22739  0.80743  0.77240  1.0000
  H   H833      1.0  0.15018  0.80374  0.79851  1.0000
  O   O174      1.0  0.17123  0.80259  0.80482  1.0000
  H   H834      1.0  0.18479  0.80866  0.78648  1.0000
  H   H835      1.0  0.18213  0.80642  0.89409  1.0000
  O   O175      1.0  0.19786  0.79107  0.89326  1.0000
  H   H836      1.0  0.21823  0.80096  0.88672  1.0000
  H   H837      1.0  0.20162  0.15914  0.18665  1.0000
  O   O176      1.0  0.21513  0.14060  0.18711  1.0000
  H   H838      1.0  0.21005  0.12798  0.16911  1.0000
  H   H839      1.0  0.23269  0.15530  0.24502  1.0000
  O   O177      1.0  0.24262  0.13343  0.24456  1.0000
  H   H840      1.0  0.23326  0.12447  0.22592  1.0000
  H   H841      1.0  0.22570  0.15219  0.30948  1.0000
  O   O178      1.0  0.24060  0.13336  0.30953  1.0000
  H   H842      1.0  0.23974  0.12445  0.28861  1.0000
  H   H843      1.0  0.22325  0.11212  0.37496  1.0000
  O   O179      1.0  0.24070  0.12115  0.36501  1.0000
  H   H844      1.0  0.23920  0.12080  0.34114  1.0000
  H   H845      1.0  0.21255  0.16926  0.44356  1.0000
  O   O180      1.0  0.23604  0.13336  0.44766  1.0000
  H   H846      1.0  0.26122  0.13296  0.43908  1.0000
  H   H847      1.0  0.22166  0.11736  0.48869  1.0000
  O   O181      1.0  0.24067  0.12851  0.48396  1.0000
  H   H848      1.0  0.23809  0.16206  0.49916  1.0000
  H   H849      1.0  0.21305  0.15007  0.55844  1.0000
  O   O182      1.0  0.22465  0.13091  0.55756  1.0000
  H   H850      1.0  0.24575  0.13710  0.55571  1.0000
  H   H851      1.0  0.22922  0.11766  0.61582  1.0000
  O   O183      1.0  0.24476  0.12066  0.63156  1.0000
  H   H852      1.0  0.23607  0.12802  0.65454  1.0000
  H   H853      1.0  0.22068  0.16168  0.68076  1.0000
  O   O184      1.0  0.22701  0.13887  0.68039  1.0000
  H   H854      1.0  0.23140  0.13117  0.70160  1.0000
  H   H855      1.0  0.22813  0.15245  0.74863  1.0000
  O   O185      1.0  0.24057  0.13339  0.74269  1.0000
  H   H856      1.0  0.23929  0.12034  0.76149  1.0000
  H   H857      1.0  0.22411  0.12219  0.82188  1.0000
  O   O186      1.0  0.24062  0.12579  0.80752  1.0000
  H   H858      1.0  0.24679  0.14782  0.80947  1.0000
  H   H859      1.0  0.23927  0.18867  0.11625  1.0000
  O   O187      1.0  0.25661  0.19901  0.12606  1.0000
  H   H860      1.0  0.24917  0.22570  0.12656  1.0000
  H   H861      1.0  0.24557  0.16324  0.18333  1.0000
  O   O188      1.0  0.25926  0.18014  0.17748  1.0000
  H   H862      1.0  0.25782  0.18956  0.15155  1.0000
  H   H863      1.0  0.25077  0.15377  0.36610  1.0000
  O   O189      1.0  0.26331  0.17345  0.36307  1.0000
  H   H864      1.0  0.25285  0.19141  0.37101  1.0000
  H   H865      1.0  0.22286  0.19172  0.53618  1.0000
  O   O190      1.0  0.23871  0.18263  0.50983  1.0000
  H   H866      1.0  0.25691  0.19358  0.50381  1.0000
  H   H867      1.0  0.24793  0.19177  0.64801  1.0000
  O   O191      1.0  0.26623  0.19248  0.63505  1.0000
  H   H868      1.0  0.27029  0.21400  0.63096  1.0000
  H   H869      1.0  0.23480  0.18179  0.78155  1.0000
  O   O192      1.0  0.25467  0.18293  0.80262  1.0000
  H   H870      1.0  0.24948  0.20176  0.81558  1.0000
  H   H871      1.0  0.24933  0.20362  0.88527  1.0000
  O   O193      1.0  0.23848  0.18315  0.88255  1.0000
  H   H872      1.0  0.25310  0.16664  0.88106  1.0000
  H   H873      1.0  0.21315  0.25523  0.12382  1.0000
  O   O194      1.0  0.23867  0.24978  0.12745  1.0000
  H   H874      1.0  0.25112  0.26758  0.13148  1.0000
  H   H875      1.0  0.22023  0.24461  0.82228  1.0000
  O   O195      1.0  0.24313  0.23507  0.82711  1.0000
  H   H876      1.0  0.25637  0.24794  0.81416  1.0000
  H   H877      1.0  0.25321  0.23782  0.85736  1.0000
  O   O196      1.0  0.26160  0.23664  0.88041  1.0000
  H   H878      1.0  0.25345  0.25322  0.89300  1.0000
  H   H879      1.0  0.22294  0.31915  0.13048  1.0000
  O   O197      1.0  0.24513  0.32099  0.13488  1.0000
  H   H880      1.0  0.24853  0.33664  0.15139  1.0000
  H   H881      1.0  0.23151  0.30680  0.86841  1.0000
  O   O198      1.0  0.25217  0.31363  0.87260  1.0000
  H   H882      1.0  0.25222  0.33688  0.87644  1.0000
  H   H883      1.0  0.25248  0.37130  0.09332  1.0000
  O   O199      1.0  0.26833  0.38519  0.09991  1.0000
  H   H884      1.0  0.25952  0.40640  0.11014  1.0000
  H   H885      1.0  0.26109  0.38014  0.18425  1.0000
  O   O200      1.0  0.25932  0.35810  0.18008  1.0000
  H   H886      1.0  0.26524  0.34701  0.19888  1.0000
  H   H887      1.0  0.27192  0.38566  0.80404  1.0000
  O   O201      1.0  0.25947  0.37021  0.81483  1.0000
  H   H888      1.0  0.26486  0.34991  0.80655  1.0000
  H   H889      1.0  0.25138  0.38815  0.88405  1.0000
  O   O202      1.0  0.25689  0.36913  0.87374  1.0000
  H   H890      1.0  0.25766  0.37203  0.85033  1.0000
  H   H891      1.0  0.23264  0.42512  0.13854  1.0000
  O   O203      1.0  0.24978  0.42991  0.12502  1.0000
  H   H892      1.0  0.24743  0.45346  0.11762  1.0000
  H   H893      1.0  0.23175  0.43126  0.86384  1.0000
  O   O204      1.0  0.25223  0.43719  0.87000  1.0000
  H   H894      1.0  0.25307  0.46047  0.87179  1.0000
  H   H895      1.0  0.22100  0.49057  0.10839  1.0000
  O   O205      1.0  0.24308  0.48385  0.11267  1.0000
  H   H896      1.0  0.24941  0.49449  0.13213  1.0000
  H   H897      1.0  0.26219  0.52282  0.17929  1.0000
  O   O206      1.0  0.25468  0.50356  0.17010  1.0000
  H   H898      1.0  0.26463  0.48677  0.18127  1.0000
  H   H899      1.0  0.26552  0.52038  0.80104  1.0000
  O   O207      1.0  0.25697  0.50132  0.80990  1.0000
  H   H900      1.0  0.26802  0.48362  0.80090  1.0000
  H   H901      1.0  0.24860  0.50989  0.88125  1.0000
  O   O208      1.0  0.25888  0.49448  0.86882  1.0000
  H   H902      1.0  0.25775  0.50001  0.84603  1.0000
  H   H903      1.0  0.23010  0.55893  0.12663  1.0000
  O   O209      1.0  0.25133  0.56690  0.12422  1.0000
  H   H904      1.0  0.24986  0.58863  0.11679  1.0000
  H   H905      1.0  0.23677  0.56562  0.86792  1.0000
  O   O210      1.0  0.25700  0.57537  0.87001  1.0000
  H   H906      1.0  0.25635  0.59962  0.87902  1.0000
  H   H907      1.0  0.24232  0.63306  0.08825  1.0000
  O   O211      1.0  0.24761  0.62259  0.10754  1.0000
  H   H908      1.0  0.24645  0.63802  0.12416  1.0000
  H   H909      1.0  0.26299  0.65475  0.18884  1.0000
  O   O212      1.0  0.25451  0.63488  0.18243  1.0000
  H   H910      1.0  0.26787  0.61795  0.18891  1.0000
  H   H911      1.0  0.26554  0.64564  0.80629  1.0000
  O   O213      1.0  0.25469  0.62714  0.81247  1.0000
  H   H912      1.0  0.26740  0.60912  0.80839  1.0000
  H   H913      1.0  0.24840  0.62540  0.91157  1.0000
  O   O214      1.0  0.25691  0.62529  0.89082  1.0000
  H   H914      1.0  0.25067  0.64748  0.87828  1.0000
  H   H915      1.0  0.21422  0.68672  0.12230  1.0000
  O   O215      1.0  0.23850  0.68902  0.12246  1.0000
  H   H916      1.0  0.24449  0.71314  0.12357  1.0000
  H   H917      1.0  0.22153  0.66980  0.85874  1.0000
  O   O216      1.0  0.24305  0.67159  0.86505  1.0000
  H   H918      1.0  0.24529  0.69540  0.87391  1.0000
  H   H919      1.0  0.25050  0.76363  0.12653  1.0000
  O   O217      1.0  0.25710  0.74068  0.12484  1.0000
  H   H920      1.0  0.27896  0.73950  0.11926  1.0000
  H   H921      1.0  0.24404  0.77320  0.80375  1.0000
  O   O218      1.0  0.23837  0.75079  0.80500  1.0000
  H   H922      1.0  0.25632  0.73850  0.80879  1.0000
  H   H923      1.0  0.21869  0.73041  0.88083  1.0000
  O   O219      1.0  0.24306  0.72338  0.88008  1.0000
  H   H924      1.0  0.25768  0.73723  0.88897  1.0000
  H   H925      1.0  0.22893  0.80590  0.12596  1.0000
  O   O220      1.0  0.24765  0.79507  0.12998  1.0000
  H   H926      1.0  0.26742  0.80720  0.12623  1.0000
  H   H927      1.0  0.24479  0.82891  0.18521  1.0000
  O   O221      1.0  0.24554  0.80965  0.19965  1.0000
  H   H928      1.0  0.25363  0.79203  0.18859  1.0000
  H   H929      1.0  0.26238  0.83113  0.34107  1.0000
  O   O222      1.0  0.27531  0.82722  0.35970  1.0000
  H   H930      1.0  0.27408  0.80587  0.36628  1.0000
  H   H931      1.0  0.24625  0.84115  0.50079  1.0000
  O   O223      1.0  0.23706  0.81892  0.49913  1.0000
  H   H932      1.0  0.24897  0.80449  0.48672  1.0000
  H   H933      1.0  0.25306  0.82845  0.64347  1.0000
  O   O224      1.0  0.27313  0.81956  0.64027  1.0000
  H   H934      1.0  0.27574  0.80332  0.65596  1.0000
  H   H935      1.0  0.24886  0.82613  0.81171  1.0000
  O   O225      1.0  0.25241  0.80735  0.79744  1.0000
  H   H936      1.0  0.27435  0.80622  0.79404  1.0000
  H   H937      1.0  0.24659  0.83099  0.86098  1.0000
  O   O226      1.0  0.24566  0.81495  0.87744  1.0000
  H   H938      1.0  0.26670  0.80774  0.88146  1.0000
  H   H939      1.0  0.22843  0.87004  0.16314  1.0000
  O   O227      1.0  0.24496  0.85717  0.17015  1.0000
  H   H940      1.0  0.26520  0.86845  0.17151  1.0000
  H   H941      1.0  0.22014  0.85066  0.24576  1.0000
  O   O228      1.0  0.23409  0.86472  0.25708  1.0000
  H   H942      1.0  0.25016  0.87035  0.24257  1.0000
  H   H943      1.0  0.23468  0.86775  0.33498  1.0000
  O   O229      1.0  0.23620  0.85193  0.31738  1.0000
  H   H944      1.0  0.23847  0.86009  0.29556  1.0000
  H   H945      1.0  0.22563  0.90501  0.36675  1.0000
  O   O230      1.0  0.23369  0.88442  0.36495  1.0000
  H   H946      1.0  0.23693  0.87530  0.38630  1.0000
  H   H947      1.0  0.22106  0.85540  0.42872  1.0000
  O   O231      1.0  0.24063  0.86147  0.42003  1.0000
  H   H948      1.0  0.25262  0.84223  0.41903  1.0000
  H   H949      1.0  0.24499  0.88581  0.49350  1.0000
  O   O232      1.0  0.25564  0.87024  0.50534  1.0000
  H   H950      1.0  0.28054  0.87351  0.50437  1.0000
  H   H951      1.0  0.24866  0.86850  0.54394  1.0000
  O   O233      1.0  0.25000  0.86413  0.56704  1.0000
  H   H952      1.0  0.23812  0.84553  0.57112  1.0000
  H   H953      1.0  0.21030  0.86801  0.62893  1.0000
  O   O234      1.0  0.23131  0.87400  0.63232  1.0000
  H   H954      1.0  0.23958  0.88006  0.61200  1.0000
  H   H955      1.0  0.24198  0.87262  0.67385  1.0000
  O   O235      1.0  0.24523  0.85927  0.69213  1.0000
  H   H956      1.0  0.23286  0.83891  0.68708  1.0000
  H   H957      1.0  0.23781  0.87523  0.75925  1.0000
  O   O236      1.0  0.22454  0.86435  0.74513  1.0000
  H   H958      1.0  0.23288  0.86551  0.72297  1.0000
  H   H959      1.0  0.23293  0.86836  0.82877  1.0000
  O   O237      1.0  0.24992  0.85440  0.82998  1.0000
  H   H960      1.0  0.27114  0.86501  0.82290  1.0000
  H   H961      1.0  0.32750  0.13721  0.15571  1.0000
  O   O238      1.0  0.33329  0.13845  0.17751  1.0000
  H   H962      1.0  0.32325  0.15801  0.18664  1.0000
  H   H963      1.0  0.27253  0.12805  0.24829  1.0000
  O   O239      1.0  0.29625  0.12586  0.25247  1.0000
  H   H964      1.0  0.30658  0.11477  0.23596  1.0000
  H   H965      1.0  0.27828  0.13965  0.31841  1.0000
  O   O240      1.0  0.30057  0.13760  0.32148  1.0000
  H   H966      1.0  0.30808  0.12944  0.30176  1.0000
  H   H967      1.0  0.29085  0.16180  0.37433  1.0000
  O   O241      1.0  0.30777  0.14593  0.38013  1.0000
  H   H968      1.0  0.30890  0.13450  0.35995  1.0000
  H   H969      1.0  0.29734  0.13655  0.40630  1.0000
  O   O242      1.0  0.28735  0.13311  0.43003  1.0000
  H   H970      1.0  0.30182  0.12717  0.44591  1.0000
  H   H971      1.0  0.30912  0.10006  0.50399  1.0000
  O   O243      1.0  0.32401  0.11603  0.50762  1.0000
  H   H972      1.0  0.31805  0.12712  0.52813  1.0000
  H   H973      1.0  0.29904  0.14164  0.58942  1.0000
  O   O244      1.0  0.31238  0.14076  0.55994  1.0000
  H   H974      1.0  0.34060  0.14225  0.56378  1.0000
  H   H975      1.0  0.28408  0.16460  0.61904  1.0000
  O   O245      1.0  0.28930  0.14320  0.61242  1.0000
  H   H976      1.0  0.26788  0.12979  0.62121  1.0000
  H   H977      1.0  0.30474  0.12971  0.67351  1.0000
  O   O246      1.0  0.31961  0.13109  0.69007  1.0000
  H   H978      1.0  0.30952  0.13646  0.71239  1.0000
  H   H979      1.0  0.27354  0.13946  0.74082  1.0000
  O   O247      1.0  0.29634  0.14304  0.73980  1.0000
  H   H980      1.0  0.30302  0.15767  0.75599  1.0000
  H   H981      1.0  0.31405  0.11939  0.82136  1.0000
  O   O248      1.0  0.33095  0.12847  0.83243  1.0000
  H   H982      1.0  0.32484  0.14962  0.84141  1.0000
  H   H983      1.0  0.29521  0.19110  0.12051  1.0000
  O   O249      1.0  0.31715  0.19022  0.12512  1.0000
  H   H984      1.0  0.32029  0.20629  0.14086  1.0000
  H   H985      1.0  0.28087  0.18184  0.18920  1.0000
  O   O250      1.0  0.30810  0.18518  0.19982  1.0000
  H   H986      1.0  0.31681  0.20592  0.19101  1.0000
  H   H987      1.0  0.30678  0.15456  0.25641  1.0000
  O   O251      1.0  0.31482  0.17790  0.25526  1.0000
  H   H988      1.0  0.31121  0.18400  0.22406  1.0000
  H   H989      1.0  0.27762  0.18477  0.79345  1.0000
  O   O252      1.0  0.30526  0.18714  0.78198  1.0000
  H   H990      1.0  0.31625  0.20645  0.79058  1.0000
  H   H991      1.0  0.34299  0.18349  0.86508  1.0000
  O   O253      1.0  0.32197  0.18030  0.85503  1.0000
  H   H992      1.0  0.31724  0.19867  0.84315  1.0000
  H   H993      1.0  0.31059  0.25294  0.08846  1.0000
  O   O254      1.0  0.32395  0.26646  0.09985  1.0000
  H   H994      1.0  0.31065  0.28728  0.11127  1.0000
  H   H995      1.0  0.31216  0.25010  0.18329  1.0000
  O   O255      1.0  0.32496  0.23291  0.17679  1.0000
  H   H996      1.0  0.34639  0.24037  0.17128  1.0000
  H   H997      1.0  0.31877  0.24998  0.81068  1.0000
  O   O256      1.0  0.33129  0.23245  0.80476  1.0000
  H   H998      1.0  0.34769  0.24080  0.79033  1.0000
  H   H999      1.0  0.29954  0.23854  0.88372  1.0000
  O   O257      1.0  0.31926  0.24939  0.88248  1.0000
  H   H1000     1.0  0.31456  0.27269  0.87815  1.0000
  H   H1001     1.0  0.27423  0.30987  0.12582  1.0000
  O   O258      1.0  0.29732  0.30783  0.12198  1.0000
  H   H1002     1.0  0.30553  0.33007  0.12179  1.0000
  H   H1003     1.0  0.28183  0.30487  0.87106  1.0000
  O   O259      1.0  0.30544  0.30138  0.86980  1.0000
  H   H1004     1.0  0.31230  0.30739  0.84912  1.0000
  H   H1005     1.0  0.29124  0.37365  0.11133  1.0000
  O   O260      1.0  0.30998  0.36293  0.12546  1.0000
  H   H1006     1.0  0.30370  0.36651  0.14691  1.0000
  H   H1007     1.0  0.31843  0.35901  0.87841  1.0000
  O   O261      1.0  0.33094  0.37535  0.87009  1.0000
  H   H1008     1.0  0.31995  0.39641  0.87038  1.0000
  H   H1009     1.0  0.30419  0.43325  0.13403  1.0000
  O   O262      1.0  0.32195  0.44455  0.12744  1.0000
  H   H1010     1.0  0.31630  0.46637  0.12080  1.0000
  H   H1011     1.0  0.28452  0.42880  0.86889  1.0000
  O   O263      1.0  0.30774  0.42712  0.86740  1.0000
  H   H1012     1.0  0.31337  0.43548  0.84711  1.0000
  H   H1013     1.0  0.29266  0.49409  0.09371  1.0000
  O   O264      1.0  0.31000  0.49657  0.10753  1.0000
  H   H1014     1.0  0.30762  0.51777  0.11783  1.0000
  H   H1015     1.0  0.30910  0.49015  0.87391  1.0000
  O   O265      1.0  0.32402  0.50598  0.87004  1.0000
  H   H1016     1.0  0.31439  0.53247  0.86891  1.0000
  H   H1017     1.0  0.27962  0.55683  0.12611  1.0000
  O   O266      1.0  0.30300  0.55051  0.13016  1.0000
  H   H1018     1.0  0.30512  0.55193  0.15283  1.0000
  H   H1019     1.0  0.27973  0.56453  0.86878  1.0000
  O   O267      1.0  0.30703  0.55697  0.86622  1.0000
  H   H1020     1.0  0.31395  0.56427  0.84602  1.0000
  H   H1021     1.0  0.30494  0.61044  0.11368  1.0000
  O   O268      1.0  0.31934  0.62474  0.12244  1.0000
  H   H1022     1.0  0.30913  0.64616  0.12391  1.0000
  H   H1023     1.0  0.31163  0.61667  0.87635  1.0000
  O   O269      1.0  0.32630  0.63201  0.87001  1.0000
  H   H1024     1.0  0.31719  0.65565  0.86911  1.0000
  H   H1025     1.0  0.27226  0.67803  0.12614  1.0000
  O   O270      1.0  0.29481  0.67497  0.12701  1.0000
  H   H1026     1.0  0.30441  0.69542  0.12363  1.0000
  H   H1027     1.0  0.28413  0.68031  0.86116  1.0000
  O   O271      1.0  0.30536  0.68178  0.86751  1.0000
  H   H1028     1.0  0.31220  0.70447  0.87202  1.0000
  H   H1029     1.0  0.31886  0.73923  0.14251  1.0000
  O   O272      1.0  0.31492  0.73323  0.12003  1.0000
  H   H1030     1.0  0.33477  0.73482  0.10957  1.0000
  H   H1031     1.0  0.31533  0.73702  0.19080  1.0000
  O   O273      1.0  0.32675  0.74918  0.17558  1.0000
  H   H1032     1.0  0.32102  0.77432  0.17653  1.0000
  H   H1033     1.0  0.31198  0.77697  0.81816  1.0000
  O   O274      1.0  0.31941  0.75567  0.82225  1.0000
  H   H1034     1.0  0.32282  0.74412  0.80321  1.0000
  H   H1035     1.0  0.31137  0.75176  0.88641  1.0000
  O   O275      1.0  0.32176  0.73554  0.87490  1.0000
  H   H1036     1.0  0.32190  0.74348  0.85201  1.0000
  H   H1037     1.0  0.30739  0.81253  0.14676  1.0000
  O   O276      1.0  0.29855  0.81732  0.12493  1.0000
  H   H1038     1.0  0.31134  0.80847  0.10891  1.0000
  H   H1039     1.0  0.31431  0.81172  0.19862  1.0000
  O   O277      1.0  0.32037  0.80319  0.17584  1.0000
  H   H1040     1.0  0.34360  0.80830  0.17354  1.0000
  H   H1041     1.0  0.29944  0.81275  0.24330  1.0000
  O   O278      1.0  0.31246  0.82233  0.22755  1.0000
  H   H1042     1.0  0.31580  0.84520  0.23122  1.0000
  H   H1043     1.0  0.30387  0.83450  0.81668  1.0000
  O   O279      1.0  0.31025  0.81253  0.81756  1.0000
  H   H1044     1.0  0.33297  0.81333  0.81112  1.0000
  H   H1045     1.0  0.30632  0.80325  0.85482  1.0000
  O   O280      1.0  0.30333  0.79769  0.87742  1.0000
  H   H1046     1.0  0.32210  0.80376  0.88793  1.0000
  H   H1047     1.0  0.30354  0.88276  0.19932  1.0000
  O   O281      1.0  0.29447  0.88156  0.17797  1.0000
  H   H1048     1.0  0.31088  0.87765  0.16331  1.0000
  H   H1049     1.0  0.31402  0.88289  0.25654  1.0000
  O   O282      1.0  0.32174  0.87904  0.23504  1.0000
  H   H1050     1.0  0.34458  0.88232  0.23572  1.0000
  H   H1051     1.0  0.30917  0.87510  0.31752  1.0000
  O   O283      1.0  0.31264  0.87154  0.29505  1.0000
  H   H1052     1.0  0.32968  0.85733  0.29409  1.0000
  H   H1053     1.0  0.30855  0.88131  0.37587  1.0000
  O   O284      1.0  0.31483  0.86671  0.36002  1.0000
  H   H1054     1.0  0.29973  0.84864  0.36098  1.0000
  H   H1055     1.0  0.30916  0.87218  0.44590  1.0000
  O   O285      1.0  0.32158  0.85907  0.43266  1.0000
  H   H1056     1.0  0.31144  0.83879  0.43133  1.0000
  H   H1057     1.0  0.30971  0.87040  0.53323  1.0000
  O   O286      1.0  0.30811  0.87642  0.51030  1.0000
  H   H1058     1.0  0.32788  0.87043  0.50036  1.0000
  H   H1059     1.0  0.28434  0.86075  0.56900  1.0000
  O   O287      1.0  0.30707  0.85712  0.56546  1.0000
  H   H1060     1.0  0.30887  0.83453  0.56552  1.0000
  H   H1061     1.0  0.31122  0.86531  0.61062  1.0000
  O   O288      1.0  0.31266  0.85935  0.63245  1.0000
  H   H1062     1.0  0.29702  0.84270  0.63645  1.0000
  H   H1063     1.0  0.27723  0.86306  0.70296  1.0000
  O   O289      1.0  0.29852  0.86909  0.70981  1.0000
  H   H1064     1.0  0.31151  0.87037  0.69164  1.0000
  H   H1065     1.0  0.30945  0.87082  0.74082  1.0000
  O   O290      1.0  0.31944  0.87412  0.76238  1.0000
  H   H1066     1.0  0.34069  0.88269  0.76024  1.0000
  H   H1067     1.0  0.30777  0.87319  0.78724  1.0000
  O   O291      1.0  0.29851  0.87160  0.81268  1.0000
  H   H1068     1.0  0.31136  0.88319  0.82666  1.0000
  H   H1069     1.0  0.36323  0.12738  0.18677  1.0000
  O   O292      1.0  0.38412  0.12104  0.19511  1.0000
  H   H1070     1.0  0.40642  0.12676  0.18150  1.0000
  H   H1071     1.0  0.38340  0.11505  0.21851  1.0000
  O   O293      1.0  0.37961  0.10599  0.25004  1.0000
  H   H1072     1.0  0.37402  0.08485  0.25371  1.0000
  H   H1073     1.0  0.38135  0.11754  0.27126  1.0000
  O   O294      1.0  0.38438  0.13333  0.30001  1.0000
  H   H1074     1.0  0.37659  0.15389  0.29637  1.0000
  H   H1075     1.0  0.37150  0.12478  0.35693  1.0000
  O   O295      1.0  0.38205  0.13334  0.37483  1.0000
  H   H1076     1.0  0.40497  0.12809  0.37340  1.0000
  H   H1077     1.0  0.37290  0.13441  0.40713  1.0000
  O   O296      1.0  0.36773  0.13839  0.43020  1.0000
  H   H1078     1.0  0.35158  0.15340  0.43092  1.0000
  H   H1079     1.0  0.35621  0.11458  0.49431  1.0000
  O   O297      1.0  0.37654  0.11670  0.48342  1.0000
  H   H1080     1.0  0.37396  0.12428  0.46084  1.0000
  H   H1081     1.0  0.37744  0.13464  0.59255  1.0000
  O   O298      1.0  0.36583  0.14083  0.56716  1.0000
  H   H1082     1.0  0.37860  0.14158  0.54889  1.0000
  H   H1083     1.0  0.37455  0.13124  0.63314  1.0000
  O   O299      1.0  0.38799  0.12864  0.61554  1.0000
  H   H1084     1.0  0.41523  0.12907  0.62041  1.0000
  H   H1085     1.0  0.34634  0.14236  0.68388  1.0000
  O   O300      1.0  0.36790  0.15547  0.68288  1.0000
  H   H1086     1.0  0.36741  0.16646  0.70375  1.0000
  H   H1087     1.0  0.37313  0.13424  0.74399  1.0000
  O   O301      1.0  0.38905  0.12329  0.75522  1.0000
  H   H1088     1.0  0.38518  0.12466  0.78003  1.0000
  H   H1089     1.0  0.36153  0.12814  0.82086  1.0000
  O   O302      1.0  0.38195  0.13335  0.80988  1.0000
  H   H1090     1.0  0.40474  0.13204  0.82196  1.0000
  H   H1091     1.0  0.35596  0.17930  0.11139  1.0000
  O   O303      1.0  0.37714  0.18525  0.10751  1.0000
  H   H1092     1.0  0.37626  0.20795  0.10346  1.0000
  H   H1093     1.0  0.37868  0.17954  0.17609  1.0000
  O   O304      1.0  0.38876  0.19729  0.18490  1.0000
  H   H1094     1.0  0.38401  0.21846  0.17279  1.0000
  H   H1095     1.0  0.38924  0.18852  0.24181  1.0000
  O   O305      1.0  0.40736  0.18025  0.25246  1.0000
  H   H1096     1.0  0.43147  0.18598  0.22666  1.0000
  H   H1097     1.0  0.34063  0.18620  0.73875  1.0000
  O   O306      1.0  0.36098  0.17782  0.73757  1.0000
  H   H1098     1.0  0.37091  0.18191  0.75868  1.0000
  H   H1099     1.0  0.38104  0.16130  0.80166  1.0000
  O   O307      1.0  0.38181  0.18527  0.79252  1.0000
  H   H1100     1.0  0.36851  0.19789  0.80530  1.0000
  H   H1101     1.0  0.36965  0.18785  0.90164  1.0000
  O   O308      1.0  0.37327  0.18605  0.87913  1.0000
  H   H1102     1.0  0.40343  0.18877  0.87489  1.0000
  H   H1103     1.0  0.34799  0.25595  0.10154  1.0000
  O   O309      1.0  0.37276  0.24460  0.10499  1.0000
  H   H1104     1.0  0.38870  0.25546  0.09387  1.0000
  H   H1105     1.0  0.38958  0.26114  0.16884  1.0000
  O   O310      1.0  0.37729  0.24464  0.16002  1.0000
  H   H1106     1.0  0.37669  0.24532  0.13332  1.0000
  H   H1107     1.0  0.36503  0.26847  0.75385  1.0000
  O   O311      1.0  0.37265  0.25413  0.76995  1.0000
  H   H1108     1.0  0.38733  0.24058  0.75953  1.0000
  H   H1109     1.0  0.38687  0.25566  0.81097  1.0000
  O   O312      1.0  0.39581  0.24699  0.82989  1.0000
  H   H1110     1.0  0.41331  0.23333  0.82195  1.0000
  H   H1111     1.0  0.34521  0.23984  0.88120  1.0000
  O   O313      1.0  0.37049  0.23465  0.88000  1.0000
  H   H1112     1.0  0.38047  0.23843  0.85812  1.0000
  H   H1113     1.0  0.36049  0.30465  0.11859  1.0000
  O   O314      1.0  0.37954  0.31362  0.12498  1.0000
  H   H1114     1.0  0.37642  0.33736  0.12598  1.0000
  H   H1115     1.0  0.38098  0.29007  0.84393  1.0000
  O   O315      1.0  0.36818  0.30844  0.84499  1.0000
  H   H1116     1.0  0.36043  0.30956  0.86622  1.0000
  H   H1117     1.0  0.34291  0.36786  0.12403  1.0000
  O   O316      1.0  0.36567  0.36785  0.12754  1.0000
  H   H1118     1.0  0.37345  0.38896  0.12507  1.0000
  H   H1119     1.0  0.36041  0.37682  0.86121  1.0000
  O   O317      1.0  0.38201  0.38325  0.85243  1.0000
  H   H1120     1.0  0.38331  0.40623  0.85446  1.0000
  H   H1121     1.0  0.35212  0.43439  0.12409  1.0000
  O   O318      1.0  0.37435  0.42762  0.11864  1.0000
  H   H1122     1.0  0.37656  0.43059  0.09628  1.0000
  H   H1123     1.0  0.36950  0.43873  0.88674  1.0000
  O   O319      1.0  0.38420  0.44174  0.87015  1.0000
  H   H1124     1.0  0.37974  0.46348  0.86067  1.0000
  H   H1125     1.0  0.35646  0.49782  0.11333  1.0000
  O   O320      1.0  0.37221  0.50860  0.12481  1.0000
  H   H1126     1.0  0.36804  0.53264  0.12363  1.0000
  H   H1127     1.0  0.34611  0.49947  0.86064  1.0000
  O   O321      1.0  0.37284  0.49387  0.85010  1.0000
  H   H1128     1.0  0.38680  0.50746  0.86084  1.0000
  H   H1129     1.0  0.33485  0.56164  0.12184  1.0000
  O   O322      1.0  0.35769  0.56136  0.12152  1.0000
  H   H1130     1.0  0.36708  0.58158  0.12388  1.0000
  H   H1131     1.0  0.37035  0.56667  0.88349  1.0000
  O   O323      1.0  0.38873  0.57546  0.87503  1.0000
  H   H1132     1.0  0.38455  0.59794  0.86587  1.0000
  H   H1133     1.0  0.35216  0.62249  0.12157  1.0000
  O   O324      1.0  0.37508  0.62226  0.12498  1.0000
  H   H1134     1.0  0.38171  0.64435  0.12644  1.0000
  H   H1135     1.0  0.35097  0.62642  0.86044  1.0000
  O   O325      1.0  0.37654  0.62540  0.85342  1.0000
  H   H1136     1.0  0.38291  0.64614  0.86127  1.0000
  H   H1137     1.0  0.38313  0.69543  0.12337  1.0000
  O   O326      1.0  0.39363  0.67670  0.13002  1.0000
  H   H1138     1.0  0.41570  0.68066  0.12612  1.0000
  H   H1139     1.0  0.36711  0.68012  0.88936  1.0000
  O   O327      1.0  0.38189  0.68162  0.87269  1.0000
  H   H1140     1.0  0.38272  0.70570  0.86604  1.0000
  H   H1141     1.0  0.38788  0.74956  0.09828  1.0000
  O   O328      1.0  0.37504  0.73831  0.11260  1.0000
  H   H1142     1.0  0.37881  0.74655  0.13435  1.0000
  H   H1143     1.0  0.35622  0.74950  0.17512  1.0000
  O   O329      1.0  0.37971  0.75530  0.17001  1.0000
  H   H1144     1.0  0.39410  0.74240  0.18165  1.0000
  H   H1145     1.0  0.36871  0.73498  0.75464  1.0000
  O   O330      1.0  0.37178  0.75203  0.76927  1.0000
  H   H1146     1.0  0.36678  0.77110  0.75825  1.0000
  H   H1147     1.0  0.38687  0.75702  0.80023  1.0000
  O   O331      1.0  0.39352  0.76791  0.81996  1.0000
  H   H1148     1.0  0.41444  0.78090  0.81521  1.0000
  H   H1149     1.0  0.36900  0.74441  0.87611  1.0000
  O   O332      1.0  0.38646  0.73610  0.86488  1.0000
  H   H1150     1.0  0.38950  0.75061  0.84342  1.0000
  H   H1151     1.0  0.37625  0.83837  0.10837  1.0000
  O   O333      1.0  0.38425  0.81986  0.11772  1.0000
  H   H1152     1.0  0.37940  0.81872  0.14167  1.0000
  H   H1153     1.0  0.37961  0.81862  0.19391  1.0000
  O   O334      1.0  0.37489  0.80988  0.17249  1.0000
  H   H1154     1.0  0.38035  0.78598  0.17234  1.0000
  H   H1155     1.0  0.38070  0.81098  0.24349  1.0000
  O   O335      1.0  0.38874  0.82468  0.22759  1.0000
  H   H1156     1.0  0.41137  0.81727  0.21987  1.0000
  H   H1157     1.0  0.37886  0.83168  0.73357  1.0000
  O   O336      1.0  0.37981  0.81472  0.74990  1.0000
  H   H1158     1.0  0.39902  0.80406  0.74610  1.0000
  H   H1159     1.0  0.36927  0.81574  0.78136  1.0000
  O   O337      1.0  0.36354  0.81479  0.80484  1.0000
  H   H1160     1.0  0.37447  0.79597  0.81385  1.0000
  H   H1161     1.0  0.36960  0.81638  0.85845  1.0000
  O   O338      1.0  0.36823  0.80991  0.88012  1.0000
  H   H1162     1.0  0.38897  0.81091  0.88817  1.0000
  H   H1163     1.0  0.37155  0.89651  0.18412  1.0000
  O   O339      1.0  0.37049  0.87906  0.16999  1.0000
  H   H1164     1.0  0.39108  0.87074  0.16899  1.0000
  H   H1165     1.0  0.37759  0.87538  0.26604  1.0000
  O   O340      1.0  0.37968  0.87869  0.24251  1.0000
  H   H1166     1.0  0.38211  0.85582  0.23461  1.0000
  H   H1167     1.0  0.37363  0.86539  0.31851  1.0000
  O   O341      1.0  0.37978  0.85942  0.29757  1.0000
  H   H1168     1.0  0.40297  0.86021  0.29770  1.0000
  H   H1169     1.0  0.34973  0.86326  0.36363  1.0000
  O   O342      1.0  0.37201  0.86211  0.36871  1.0000
  H   H1170     1.0  0.37412  0.86267  0.39168  1.0000
  H   H1171     1.0  0.35715  0.86020  0.43317  1.0000
  O   O343      1.0  0.37971  0.85882  0.43017  1.0000
  H   H1172     1.0  0.38527  0.83684  0.43097  1.0000
  H   H1173     1.0  0.37581  0.86293  0.48079  1.0000
  O   O344      1.0  0.36127  0.85930  0.49760  1.0000
  H   H1174     1.0  0.37158  0.86063  0.51785  1.0000
  H   H1175     1.0  0.35121  0.86768  0.57128  1.0000
  O   O345      1.0  0.37270  0.86380  0.56742  1.0000
  H   H1176     1.0  0.37751  0.84171  0.57136  1.0000
  H   H1177     1.0  0.34235  0.86237  0.64701  1.0000
  O   O346      1.0  0.36327  0.86415  0.65750  1.0000
  H   H1178     1.0  0.37878  0.86792  0.64201  1.0000
  H   H1179     1.0  0.37270  0.86057  0.69109  1.0000
  O   O347      1.0  0.38437  0.85922  0.71185  1.0000
  H   H1180     1.0  0.40702  0.86254  0.70455  1.0000
  H   H1181     1.0  0.37819  0.87813  0.73467  1.0000
  O   O348      1.0  0.37265  0.89175  0.75501  1.0000
  H   H1182     1.0  0.37680  0.91328  0.75138  1.0000
  H   H1183     1.0  0.37675  0.87994  0.79019  1.0000
  O   O349      1.0  0.37893  0.87044  0.81144  1.0000
  H   H1184     1.0  0.37032  0.84887  0.81082  1.0000
  H   H1185     1.0  0.42938  0.15390  0.15122  1.0000
  O   O350      1.0  0.42839  0.13348  0.16737  1.0000
  H   H1186     1.0  0.44773  0.12723  0.17604  1.0000
  H   H1187     1.0  0.43997  0.12937  0.24891  1.0000
  O   O351      1.0  0.46060  0.13347  0.24252  1.0000
  H   H1188     1.0  0.46653  0.15540  0.24710  1.0000
  H   H1189     1.0  0.40704  0.13501  0.30664  1.0000
  O   O352      1.0  0.43755  0.13838  0.31781  1.0000
  H   H1190     1.0  0.44386  0.15953  0.31479  1.0000
  H   H1191     1.0  0.43844  0.09851  0.37153  1.0000
  O   O353      1.0  0.43743  0.12078  0.37242  1.0000
  H   H1192     1.0  0.43879  0.13196  0.34173  1.0000
  H   H1193     1.0  0.43830  0.15457  0.43114  1.0000
  O   O354      1.0  0.44895  0.13593  0.42498  1.0000
  H   H1194     1.0  0.44330  0.12931  0.40096  1.0000
  H   H1195     1.0  0.40104  0.12181  0.49619  1.0000
  O   O355      1.0  0.42504  0.12726  0.50423  1.0000
  H   H1196     1.0  0.43814  0.12262  0.48669  1.0000
  H   H1197     1.0  0.43950  0.12731  0.52864  1.0000
  O   O356      1.0  0.45589  0.12872  0.54983  1.0000
  H   H1198     1.0  0.44614  0.13631  0.56869  1.0000
  H   H1199     1.0  0.44641  0.10729  0.62412  1.0000
  O   O357      1.0  0.43989  0.12827  0.62756  1.0000
  H   H1200     1.0  0.43037  0.13420  0.65796  1.0000
  H   H1201     1.0  0.39240  0.14550  0.67966  1.0000
  O   O358      1.0  0.41831  0.13825  0.67889  1.0000
  H   H1202     1.0  0.42849  0.13753  0.70002  1.0000
  H   H1203     1.0  0.41476  0.13026  0.74589  1.0000
  O   O359      1.0  0.43651  0.13993  0.73545  1.0000
  H   H1204     1.0  0.43571  0.16215  0.73886  1.0000
  H   H1205     1.0  0.43087  0.15207  0.84870  1.0000
  O   O360      1.0  0.43043  0.13595  0.83286  1.0000
  H   H1206     1.0  0.45243  0.13426  0.82171  1.0000
  H   H1207     1.0  0.43395  0.19839  0.13576  1.0000
  O   O361      1.0  0.42789  0.17595  0.13222  1.0000
  H   H1208     1.0  0.40728  0.17666  0.12115  1.0000
  H   H1209     1.0  0.41554  0.19445  0.19288  1.0000
  O   O362      1.0  0.43749  0.19257  0.20509  1.0000
  H   H1210     1.0  0.45957  0.18855  0.19414  1.0000
  H   H1211     1.0  0.41191  0.19790  0.79714  1.0000
  O   O363      1.0  0.43060  0.20980  0.80517  1.0000
  H   H1212     1.0  0.44231  0.19603  0.81825  1.0000
  H   H1213     1.0  0.44053  0.21920  0.87217  1.0000
  O   O364      1.0  0.42797  0.18987  0.87278  1.0000
  H   H1214     1.0  0.43645  0.17958  0.89091  1.0000
  H   H1215     1.0  0.43637  0.25214  0.12659  1.0000
  O   O365      1.0  0.44217  0.23240  0.13748  1.0000
  H   H1216     1.0  0.45730  0.23796  0.15324  1.0000
  H   H1217     1.0  0.45072  0.27072  0.87781  1.0000
  O   O366      1.0  0.45381  0.23940  0.87230  1.0000
  H   H1218     1.0  0.46605  0.24062  0.85250  1.0000
  H   H1219     1.0  0.40797  0.29702  0.11825  1.0000
  O   O367      1.0  0.42818  0.28656  0.11263  1.0000
  H   H1220     1.0  0.44244  0.30392  0.11297  1.0000
  H   H1221     1.0  0.43862  0.30757  0.87856  1.0000
  O   O368      1.0  0.45588  0.29399  0.88008  1.0000
  H   H1222     1.0  0.48286  0.30694  0.87857  1.0000
  H   H1223     1.0  0.43657  0.36000  0.12401  1.0000
  O   O369      1.0  0.45403  0.34620  0.12432  1.0000
  H   H1224     1.0  0.47392  0.36144  0.12372  1.0000
  H   H1225     1.0  0.41289  0.37390  0.86344  1.0000
  O   O370      1.0  0.43491  0.37031  0.86995  1.0000
  H   H1226     1.0  0.43845  0.38154  0.88915  1.0000
  H   H1227     1.0  0.40608  0.43569  0.13268  1.0000
  O   O371      1.0  0.42815  0.44198  0.13754  1.0000
  H   H1228     1.0  0.42972  0.47402  0.13176  1.0000
  H   H1229     1.0  0.42244  0.43854  0.88098  1.0000
  O   O372      1.0  0.44364  0.44373  0.88685  1.0000
  H   H1230     1.0  0.44514  0.46673  0.88401  1.0000
  H   H1231     1.0  0.39954  0.50039  0.12390  1.0000
  O   O373      1.0  0.42371  0.49633  0.12503  1.0000
  H   H1232     1.0  0.43504  0.51773  0.12577  1.0000
  H   H1233     1.0  0.44327  0.50048  0.84879  1.0000
  O   O374      1.0  0.44627  0.50001  0.87124  1.0000
  H   H1234     1.0  0.44282  0.52189  0.87944  1.0000
  H   H1235     1.0  0.44331  0.55200  0.15272  1.0000
  O   O375      1.0  0.44216  0.54819  0.13037  1.0000
  H   H1236     1.0  0.43482  0.56866  0.12048  1.0000
  H   H1237     1.0  0.41559  0.56417  0.88156  1.0000
  O   O376      1.0  0.43756  0.55546  0.88763  1.0000
  H   H1238     1.0  0.44192  0.56125  0.90900  1.0000
  H   H1239     1.0  0.40374  0.60794  0.11597  1.0000
  O   O377      1.0  0.42575  0.60008  0.11256  1.0000
  H   H1240     1.0  0.43966  0.61609  0.11889  1.0000
  H   H1241     1.0  0.43470  0.61346  0.86615  1.0000
  O   O378      1.0  0.45149  0.62713  0.86993  1.0000
  H   H1242     1.0  0.44586  0.65133  0.87123  1.0000
  H   H1243     1.0  0.45337  0.68943  0.09470  1.0000
  O   O379      1.0  0.44896  0.69198  0.11673  1.0000
  H   H1244     1.0  0.44989  0.71487  0.12102  1.0000
  H   H1245     1.0  0.41463  0.68016  0.87566  1.0000
  O   O380      1.0  0.43747  0.67918  0.87257  1.0000
  H   H1246     1.0  0.44570  0.70015  0.86925  1.0000
  H   H1247     1.0  0.44463  0.77051  0.12267  1.0000
  O   O381      1.0  0.45506  0.74914  0.12886  1.0000
  H   H1248     1.0  0.45804  0.74907  0.15147  1.0000
  H   H1249     1.0  0.42169  0.73937  0.87213  1.0000
  O   O382      1.0  0.44438  0.73837  0.87002  1.0000
  H   H1250     1.0  0.45013  0.75689  0.85893  1.0000
  H   H1251     1.0  0.41287  0.80855  0.11492  1.0000
  O   O383      1.0  0.43518  0.79993  0.11750  1.0000
  H   H1252     1.0  0.44590  0.81359  0.13147  1.0000
  H   H1253     1.0  0.43832  0.83088  0.19076  1.0000
  O   O384      1.0  0.43551  0.81226  0.20505  1.0000
  H   H1254     1.0  0.45408  0.80823  0.21790  1.0000
  H   H1255     1.0  0.43251  0.82417  0.81198  1.0000
  O   O385      1.0  0.43528  0.79991  0.80756  1.0000
  H   H1256     1.0  0.45653  0.79448  0.80874  1.0000
  H   H1257     1.0  0.43668  0.83321  0.86101  1.0000
  O   O386      1.0  0.43757  0.81748  0.87739  1.0000
  H   H1258     1.0  0.45881  0.81643  0.88360  1.0000
  H   H1259     1.0  0.45462  0.87074  0.16643  1.0000
  O   O387      1.0  0.43818  0.86233  0.17878  1.0000
  H   H1260     1.0  0.43785  0.87275  0.20079  1.0000
  H   H1261     1.0  0.41149  0.88487  0.23694  1.0000
  O   O388      1.0  0.43492  0.88161  0.23251  1.0000
  H   H1262     1.0  0.44113  0.86531  0.24672  1.0000
  H   H1263     1.0  0.45259  0.87798  0.29435  1.0000
  O   O389      1.0  0.43540  0.86675  0.30251  1.0000
  H   H1264     1.0  0.43538  0.86802  0.32639  1.0000
  H   H1265     1.0  0.40379  0.86797  0.36108  1.0000
  O   O390      1.0  0.42681  0.87069  0.35867  1.0000
  H   H1266     1.0  0.43685  0.86245  0.37689  1.0000
  H   H1267     1.0  0.41933  0.87074  0.43407  1.0000
  O   O391      1.0  0.43961  0.87410  0.44273  1.0000
  H   H1268     1.0  0.43790  0.87825  0.46610  1.0000
  H   H1269     1.0  0.43439  0.91248  0.49681  1.0000
  O   O392      1.0  0.43530  0.89029  0.49841  1.0000
  H   H1270     1.0  0.43253  0.88493  0.52156  1.0000
  H   H1271     1.0  0.40416  0.87765  0.56121  1.0000
  O   O393      1.0  0.42583  0.88150  0.55499  1.0000
  H   H1272     1.0  0.43889  0.87490  0.57188  1.0000
  H   H1273     1.0  0.43109  0.90702  0.62573  1.0000
  O   O394      1.0  0.43752  0.88672  0.63244  1.0000
  H   H1274     1.0  0.46028  0.88516  0.62952  1.0000
  H   H1275     1.0  0.43199  0.87784  0.66884  1.0000
  O   O395      1.0  0.43391  0.87145  0.69123  1.0000
  H   H1276     1.0  0.45576  0.86567  0.69366  1.0000
  H   H1277     1.0  0.44365  0.87440  0.74220  1.0000
  O   O396      1.0  0.45614  0.86896  0.76005  1.0000
  H   H1278     1.0  0.46638  0.84849  0.75612  1.0000
  H   H1279     1.0  0.40841  0.86325  0.81652  1.0000
  O   O397      1.0  0.43081  0.85423  0.81727  1.0000
  H   H1280     1.0  0.44164  0.86337  0.79936  1.0000
  H   H1281     1.0  0.50247  0.14980  0.18857  1.0000
  O   O398      1.0  0.50703  0.12849  0.18251  1.0000
  H   H1282     1.0  0.52924  0.12751  0.17556  1.0000
  H   H1283     1.0  0.48982  0.11963  0.24467  1.0000
  O   O399      1.0  0.51171  0.11329  0.24997  1.0000
  H   H1284     1.0  0.51591  0.09463  0.23837  1.0000
  H   H1285     1.0  0.48253  0.12960  0.30909  1.0000
  O   O400      1.0  0.50459  0.12830  0.30984  1.0000
  H   H1286     1.0  0.51038  0.12026  0.28883  1.0000
  H   H1287     1.0  0.48043  0.12480  0.37395  1.0000
  O   O401      1.0  0.50237  0.12592  0.37722  1.0000
  H   H1288     1.0  0.51149  0.12454  0.35635  1.0000
  H   H1289     1.0  0.47475  0.13216  0.43366  1.0000
  O   O402      1.0  0.49951  0.12777  0.43858  1.0000
  H   H1290     1.0  0.50993  0.12479  0.41845  1.0000
  H   H1291     1.0  0.50818  0.13271  0.50756  1.0000
  O   O403      1.0  0.51618  0.11860  0.49011  1.0000
  H   H1292     1.0  0.50898  0.12248  0.46153  1.0000
  H   H1293     1.0  0.47903  0.14162  0.54358  1.0000
  O   O404      1.0  0.50224  0.15268  0.53520  1.0000
  H   H1294     1.0  0.51918  0.14694  0.54857  1.0000
  H   H1295     1.0  0.48676  0.14700  0.62380  1.0000
  O   O405      1.0  0.50455  0.15059  0.63692  1.0000
  H   H1296     1.0  0.49768  0.13458  0.66370  1.0000
  H   H1297     1.0  0.47355  0.10854  0.67619  1.0000
  O   O406      1.0  0.49072  0.12080  0.68244  1.0000
  H   H1298     1.0  0.49320  0.12513  0.71353  1.0000
  H   H1299     1.0  0.50001  0.15406  0.73959  1.0000
  O   O407      1.0  0.49042  0.13121  0.73741  1.0000
  H   H1300     1.0  0.46607  0.13295  0.73959  1.0000
  H   H1301     1.0  0.49077  0.15869  0.81232  1.0000
  O   O408      1.0  0.47932  0.13707  0.81058  1.0000
  H   H1302     1.0  0.49105  0.12068  0.80136  1.0000
  H   H1303     1.0  0.48064  0.18379  0.11572  1.0000
  O   O409      1.0  0.49753  0.19261  0.12725  1.0000
  H   H1304     1.0  0.50105  0.21629  0.12000  1.0000
  H   H1305     1.0  0.49041  0.21219  0.18810  1.0000
  O   O410      1.0  0.48618  0.19036  0.18269  1.0000
  H   H1306     1.0  0.49045  0.18937  0.15852  1.0000
  H   H1307     1.0  0.47523  0.20499  0.24603  1.0000
  O   O411      1.0  0.48147  0.18551  0.25504  1.0000
  H   H1308     1.0  0.50176  0.18862  0.26410  1.0000
  H   H1309     1.0  0.50585  0.20274  0.74789  1.0000
  O   O412      1.0  0.51153  0.18253  0.73757  1.0000
  H   H1310     1.0  0.53077  0.18572  0.72685  1.0000
  H   H1311     1.0  0.49505  0.20508  0.81303  1.0000
  O   O413      1.0  0.50465  0.18530  0.81755  1.0000
  H   H1312     1.0  0.52901  0.18658  0.81144  1.0000
  H   H1313     1.0  0.50904  0.18414  0.85619  1.0000
  O   O414      1.0  0.51848  0.18518  0.87746  1.0000
  H   H1314     1.0  0.51084  0.20394  0.88996  1.0000
  H   H1315     1.0  0.50740  0.26597  0.12198  1.0000
  O   O415      1.0  0.50690  0.24449  0.10989  1.0000
  H   H1316     1.0  0.50087  0.24794  0.08848  1.0000
  H   H1317     1.0  0.46885  0.26219  0.19618  1.0000
  O   O416      1.0  0.48381  0.24963  0.18507  1.0000
  H   H1318     1.0  0.50147  0.26277  0.18119  1.0000
  H   H1319     1.0  0.48998  0.24768  0.74389  1.0000
  O   O417      1.0  0.50233  0.23484  0.75756  1.0000
  H   H1320     1.0  0.51748  0.24794  0.76778  1.0000
  H   H1321     1.0  0.47566  0.25765  0.80907  1.0000
  O   O418      1.0  0.48827  0.24705  0.82487  1.0000
  H   H1322     1.0  0.50593  0.26002  0.82865  1.0000
  H   H1323     1.0  0.47908  0.23643  0.89317  1.0000
  O   O419      1.0  0.50001  0.23211  0.90263  1.0000
  H   H1324     1.0  0.50358  0.24308  0.92183  1.0000
  H   H1325     1.0  0.49610  0.30968  0.13369  1.0000
  O   O420      1.0  0.51156  0.29388  0.13497  1.0000
  H   H1326     1.0  0.53336  0.30186  0.12853  1.0000
  H   H1327     1.0  0.49689  0.34327  0.86634  1.0000
  O   O421      1.0  0.50240  0.32102  0.87502  1.0000
  H   H1328     1.0  0.52583  0.31780  0.87832  1.0000
  H   H1329     1.0  0.49484  0.40351  0.12265  1.0000
  O   O422      1.0  0.49697  0.37956  0.12502  1.0000
  H   H1330     1.0  0.51973  0.37631  0.12421  1.0000
  H   H1331     1.0  0.46445  0.36743  0.85401  1.0000
  O   O423      1.0  0.48757  0.36883  0.85172  1.0000
  H   H1332     1.0  0.49163  0.39229  0.85911  1.0000
  H   H1333     1.0  0.50008  0.45623  0.12292  1.0000
  O   O424      1.0  0.50277  0.43360  0.11551  1.0000
  H   H1334     1.0  0.52243  0.43309  0.10538  1.0000
  H   H1335     1.0  0.47026  0.43086  0.87597  1.0000
  O   O425      1.0  0.49090  0.42203  0.86760  1.0000
  H   H1336     1.0  0.50858  0.43090  0.87753  1.0000
  H   H1337     1.0  0.50155  0.50737  0.12390  1.0000
  O   O426      1.0  0.50692  0.48662  0.13256  1.0000
  H   H1338     1.0  0.52931  0.48692  0.13598  1.0000
  H   H1339     1.0  0.48941  0.49485  0.86157  1.0000
  O   O427      1.0  0.50467  0.50612  0.84996  1.0000
  H   H1340     1.0  0.50103  0.52958  0.85400  1.0000
  H   H1341     1.0  0.49843  0.56228  0.12291  1.0000
  O   O428      1.0  0.50724  0.54319  0.11492  1.0000
  H   H1342     1.0  0.52901  0.54665  0.11151  1.0000
  H   H1343     1.0  0.46981  0.55929  0.86920  1.0000
  O   O429      1.0  0.49051  0.55835  0.86003  1.0000
  H   H1344     1.0  0.49684  0.57922  0.85336  1.0000
  H   H1345     1.0  0.49462  0.61570  0.11273  1.0000
  O   O430      1.0  0.50233  0.60751  0.13226  1.0000
  H   H1346     1.0  0.52465  0.61091  0.13136  1.0000
  H   H1347     1.0  0.47735  0.62118  0.85958  1.0000
  O   O431      1.0  0.50032  0.61719  0.85014  1.0000
  H   H1348     1.0  0.51655  0.61837  0.86547  1.0000
  H   H1349     1.0  0.49947  0.67526  0.12518  1.0000
  O   O432      1.0  0.51633  0.68273  0.11270  1.0000
  H   H1350     1.0  0.51219  0.70524  0.10841  1.0000
  H   H1351     1.0  0.50017  0.66594  0.86658  1.0000
  O   O433      1.0  0.51621  0.67663  0.87750  1.0000
  H   H1352     1.0  0.51125  0.69917  0.88178  1.0000
  H   H1353     1.0  0.51047  0.75415  0.08946  1.0000
  O   O434      1.0  0.50655  0.74056  0.10689  1.0000
  H   H1354     1.0  0.48598  0.74655  0.11632  1.0000
  H   H1355     1.0  0.47347  0.74078  0.19936  1.0000
  O   O435      1.0  0.49026  0.75050  0.18783  1.0000
  H   H1356     1.0  0.50846  0.73759  0.19077  1.0000
  H   H1357     1.0  0.48910  0.74862  0.74865  1.0000
  O   O436      1.0  0.50233  0.76559  0.75463  1.0000
  H   H1358     1.0  0.52062  0.76414  0.74152  1.0000
  H   H1359     1.0  0.48298  0.73202  0.81645  1.0000
  O   O437      1.0  0.50215  0.74067  0.82474  1.0000
  H   H1360     1.0  0.51857  0.72987  0.81316  1.0000
  H   H1361     1.0  0.49470  0.74192  0.89449  1.0000
  O   O438      1.0  0.51141  0.73343  0.88242  1.0000
  H   H1362     1.0  0.50736  0.73859  0.85963  1.0000
  H   H1363     1.0  0.50323  0.82610  0.10610  1.0000
  O   O439      1.0  0.51840  0.81479  0.11759  1.0000
  H   H1364     1.0  0.51120  0.81157  0.13969  1.0000
  H   H1365     1.0  0.49439  0.81929  0.19005  1.0000
  O   O440      1.0  0.50241  0.80490  0.17495  1.0000
  H   H1366     1.0  0.49614  0.78310  0.18098  1.0000
  H   H1367     1.0  0.46659  0.80088  0.26088  1.0000
  O   O441      1.0  0.47912  0.80729  0.24286  1.0000
  H   H1368     1.0  0.49928  0.79852  0.24641  1.0000
  H   H1369     1.0  0.49149  0.79927  0.75059  1.0000
  O   O442      1.0  0.49089  0.82225  0.75502  1.0000
  H   H1370     1.0  0.50882  0.83195  0.74588  1.0000
  H   H1371     1.0  0.49858  0.81136  0.79141  1.0000
  O   O443      1.0  0.50229  0.80211  0.81234  1.0000
  H   H1372     1.0  0.50427  0.77953  0.81137  1.0000
  H   H1373     1.0  0.50495  0.81578  0.84331  1.0000
  O   O444      1.0  0.50922  0.82489  0.86490  1.0000
  H   H1374     1.0  0.50853  0.84708  0.86170  1.0000
  H   H1375     1.0  0.51556  0.90595  0.16413  1.0000
  O   O445      1.0  0.51841  0.88663  0.17504  1.0000
  H   H1376     1.0  0.51263  0.89033  0.19760  1.0000
  H   H1377     1.0  0.47543  0.89983  0.23121  1.0000
  O   O446      1.0  0.49758  0.89872  0.23015  1.0000
  H   H1378     1.0  0.50488  0.89497  0.25163  1.0000
  H   H1379     1.0  0.50913  0.87336  0.31353  1.0000
  O   O447      1.0  0.50692  0.87619  0.28999  1.0000
  H   H1380     1.0  0.50528  0.85547  0.28163  1.0000
  H   H1381     1.0  0.50013  0.86266  0.36294  1.0000
  O   O448      1.0  0.51621  0.86424  0.34764  1.0000
  H   H1382     1.0  0.53605  0.86679  0.35978  1.0000
  H   H1383     1.0  0.46803  0.87294  0.43137  1.0000
  O   O449      1.0  0.49180  0.87282  0.42761  1.0000
  H   H1384     1.0  0.49846  0.89212  0.41860  1.0000
  H   H1385     1.0  0.50371  0.86680  0.45611  1.0000
  O   O450      1.0  0.51109  0.86424  0.47988  1.0000
  H   H1386     1.0  0.49504  0.87067  0.49384  1.0000
  H   H1387     1.0  0.49855  0.85320  0.56134  1.0000
  O   O451      1.0  0.50943  0.86908  0.57254  1.0000
  H   H1388     1.0  0.53224  0.86790  0.56649  1.0000
  H   H1389     1.0  0.50109  0.87571  0.60379  1.0000
  O   O452      1.0  0.49555  0.88282  0.62655  1.0000
  H   H1390     1.0  0.50544  0.90261  0.62931  1.0000
  H   H1391     1.0  0.49623  0.86832  0.66532  1.0000
  O   O453      1.0  0.49087  0.86420  0.68737  1.0000
  H   H1392     1.0  0.50819  0.86774  0.70090  1.0000
  H   H1393     1.0  0.48539  0.89040  0.77095  1.0000
  O   O454      1.0  0.50599  0.89792  0.77695  1.0000
  H   H1394     1.0  0.52185  0.88803  0.76160  1.0000
  H   H1395     1.0  0.51123  0.90259  0.84381  1.0000
  O   O455      1.0  0.51848  0.88658  0.83005  1.0000
  H   H1396     1.0  0.51233  0.89232  0.80501  1.0000
  H   H1397     1.0  0.56129  0.11217  0.14424  1.0000
  O   O456      1.0  0.56022  0.12836  0.15979  1.0000
  H   H1398     1.0  0.55904  0.14937  0.14751  1.0000
  H   H1399     1.0  0.54542  0.13033  0.24236  1.0000
  O   O457      1.0  0.56707  0.13582  0.23997  1.0000
  H   H1400     1.0  0.57144  0.15675  0.23085  1.0000
  H   H1401     1.0  0.55292  0.13522  0.31375  1.0000
  O   O458      1.0  0.57187  0.13338  0.32499  1.0000
  H   H1402     1.0  0.59111  0.13982  0.31252  1.0000
  H   H1403     1.0  0.57604  0.11949  0.35319  1.0000
  O   O459      1.0  0.58098  0.10866  0.37473  1.0000
  H   H1404     1.0  0.58620  0.08742  0.37168  1.0000
  H   H1405     1.0  0.58191  0.12212  0.40318  1.0000
  O   O460      1.0  0.58322  0.13341  0.42490  1.0000
  H   H1406     1.0  0.56761  0.14898  0.42651  1.0000
  H   H1407     1.0  0.53533  0.11014  0.49846  1.0000
  O   O461      1.0  0.56494  0.10865  0.52262  1.0000
  H   H1408     1.0  0.59856  0.11202  0.50696  1.0000
  H   H1409     1.0  0.55986  0.12940  0.59949  1.0000
  O   O462      1.0  0.56481  0.12832  0.55002  1.0000
  H   H1410     1.0  0.59833  0.13523  0.56033  1.0000
  H   H1411     1.0  0.52713  0.14242  0.62636  1.0000
  O   O463      1.0  0.55311  0.13577  0.62000  1.0000
  H   H1412     1.0  0.56679  0.13210  0.64078  1.0000
  H   H1413     1.0  0.56535  0.11994  0.68376  1.0000
  O   O464      1.0  0.57865  0.12835  0.66789  1.0000
  H   H1414     1.0  0.59833  0.13694  0.67862  1.0000
  H   H1415     1.0  0.57007  0.12640  0.76649  1.0000
  O   O465      1.0  0.58085  0.13324  0.74790  1.0000
  H   H1416     1.0  0.59589  0.15803  0.75321  1.0000
  H   H1417     1.0  0.56813  0.12689  0.83791  1.0000
  O   O466      1.0  0.57638  0.13101  0.81736  1.0000
  H   H1418     1.0  0.57016  0.15270  0.81222  1.0000
  H   H1419     1.0  0.53146  0.17937  0.12663  1.0000
  O   O467      1.0  0.55354  0.17572  0.13017  1.0000
  H   H1420     1.0  0.56313  0.19633  0.13369  1.0000
  H   H1421     1.0  0.57092  0.20378  0.21608  1.0000
  O   O468      1.0  0.58560  0.18772  0.21997  1.0000
  H   H1422     1.0  0.60439  0.18942  0.20378  1.0000
  H   H1423     1.0  0.56612  0.19157  0.83609  1.0000
  O   O469      1.0  0.55790  0.18766  0.80966  1.0000
  H   H1424     1.0  0.56649  0.20089  0.79381  1.0000
  H   H1425     1.0  0.54676  0.18784  0.87222  1.0000
  O   O470      1.0  0.56951  0.19268  0.86267  1.0000
  H   H1426     1.0  0.57622  0.21389  0.86880  1.0000
  H   H1427     1.0  0.56085  0.24791  0.12943  1.0000
  O   O471      1.0  0.57459  0.23213  0.13705  1.0000
  H   H1428     1.0  0.59547  0.23848  0.13159  1.0000
  H   H1429     1.0  0.57531  0.26519  0.87136  1.0000
  O   O472      1.0  0.58807  0.24714  0.86964  1.0000
  H   H1430     1.0  0.60099  0.24743  0.84900  1.0000
  H   H1431     1.0  0.55658  0.31921  0.09506  1.0000
  O   O473      1.0  0.56023  0.30885  0.11471  1.0000
  H   H1432     1.0  0.58353  0.31170  0.11998  1.0000
  H   H1433     1.0  0.55884  0.34707  0.87121  1.0000
  O   O474      1.0  0.55607  0.32424  0.87738  1.0000
  H   H1434     1.0  0.57628  0.31514  0.87890  1.0000
  H   H1435     1.0  0.56066  0.40471  0.11936  1.0000
  O   O475      1.0  0.55311  0.38280  0.12479  1.0000
  H   H1436     1.0  0.56991  0.36881  0.12642  1.0000
  H   H1437     1.0  0.56184  0.39910  0.86835  1.0000
  O   O476      1.0  0.56529  0.37757  0.85955  1.0000
  H   H1438     1.0  0.58591  0.37751  0.85107  1.0000
  H   H1439     1.0  0.56645  0.45547  0.11824  1.0000
  O   O477      1.0  0.57182  0.43463  0.11003  1.0000
  H   H1440     1.0  0.59438  0.43441  0.10841  1.0000
  H   H1441     1.0  0.56410  0.45281  0.87551  1.0000
  O   O478      1.0  0.56467  0.43024  0.88251  1.0000
  H   H1442     1.0  0.58140  0.42871  0.89712  1.0000
  H   H1443     1.0  0.56755  0.51216  0.12828  1.0000
  O   O479      1.0  0.56493  0.48893  0.13519  1.0000
  H   H1444     1.0  0.57940  0.48489  0.15168  1.0000
  H   H1445     1.0  0.55941  0.50562  0.87348  1.0000
  O   O480      1.0  0.56961  0.48636  0.86734  1.0000
  H   H1446     1.0  0.58844  0.49235  0.85645  1.0000
  H   H1447     1.0  0.56586  0.55422  0.14207  1.0000
  O   O481      1.0  0.56958  0.54328  0.12256  1.0000
  H   H1448     1.0  0.59177  0.54992  0.11416  1.0000
  H   H1449     1.0  0.56034  0.56945  0.87936  1.0000
  O   O482      1.0  0.56724  0.54808  0.88253  1.0000
  H   H1450     1.0  0.58926  0.54924  0.88350  1.0000
  H   H1451     1.0  0.56388  0.63900  0.11390  1.0000
  O   O483      1.0  0.56024  0.61979  0.12496  1.0000
  H   H1452     1.0  0.57991  0.61058  0.12895  1.0000
  H   H1453     1.0  0.56159  0.62547  0.89116  1.0000
  O   O484      1.0  0.56480  0.61003  0.87514  1.0000
  H   H1454     1.0  0.58704  0.61129  0.86955  1.0000
  H   H1455     1.0  0.55022  0.68768  0.12367  1.0000
  O   O485      1.0  0.57180  0.69385  0.12742  1.0000
  H   H1456     1.0  0.57351  0.71676  0.12769  1.0000
  H   H1457     1.0  0.54761  0.67841  0.87134  1.0000
  O   O486      1.0  0.56932  0.68645  0.86750  1.0000
  H   H1458     1.0  0.56785  0.70514  0.85539  1.0000
  H   H1459     1.0  0.54713  0.75382  0.12203  1.0000
  O   O487      1.0  0.56911  0.75319  0.12505  1.0000
  H   H1460     1.0  0.57613  0.77478  0.12657  1.0000
  H   H1461     1.0  0.55876  0.74725  0.88090  1.0000
  O   O488      1.0  0.57633  0.75561  0.86997  1.0000
  H   H1462     1.0  0.57276  0.77945  0.86658  1.0000
  H   H1463     1.0  0.55529  0.81588  0.11681  1.0000
  O   O489      1.0  0.57637  0.81511  0.12514  1.0000
  H   H1464     1.0  0.57718  0.83337  0.13940  1.0000
  H   H1465     1.0  0.54246  0.80555  0.18939  1.0000
  O   O490      1.0  0.56234  0.80738  0.19987  1.0000
  H   H1466     1.0  0.57772  0.80583  0.18360  1.0000
  H   H1467     1.0  0.55329  0.81866  0.79326  1.0000
  O   O491      1.0  0.56476  0.83686  0.78749  1.0000
  H   H1468     1.0  0.56821  0.84914  0.80789  1.0000
  H   H1469     1.0  0.54215  0.81396  0.86873  1.0000
  O   O492      1.0  0.56462  0.80989  0.86505  1.0000
  H   H1470     1.0  0.57135  0.82890  0.85436  1.0000
  H   H1471     1.0  0.55059  0.87225  0.16481  1.0000
  O   O493      1.0  0.57180  0.86421  0.16261  1.0000
  H   H1472     1.0  0.57947  0.86541  0.18397  1.0000
  H   H1473     1.0  0.56586  0.83852  0.22137  1.0000
  O   O494      1.0  0.57180  0.85902  0.22979  1.0000
  H   H1474     1.0  0.56632  0.86023  0.25166  1.0000
  H   H1475     1.0  0.56357  0.85017  0.31124  1.0000
  O   O495      1.0  0.57171  0.86909  0.30243  1.0000
  H   H1476     1.0  0.55404  0.88223  0.29888  1.0000
  H   H1477     1.0  0.56973  0.86983  0.40048  1.0000
  O   O496      1.0  0.56496  0.86917  0.37752  1.0000
  H   H1478     1.0  0.58410  0.86750  0.36630  1.0000
  H   H1479     1.0  0.58078  0.84154  0.43353  1.0000
  O   O497      1.0  0.58329  0.86389  0.43513  1.0000
  H   H1480     1.0  0.57327  0.87047  0.45824  1.0000
  H   H1481     1.0  0.53857  0.87145  0.48488  1.0000
  O   O498      1.0  0.56256  0.87651  0.48499  1.0000
  H   H1482     1.0  0.57239  0.87051  0.50421  1.0000
  H   H1483     1.0  0.56280  0.83622  0.56216  1.0000
  O   O499      1.0  0.56263  0.85887  0.55996  1.0000
  H   H1484     1.0  0.58436  0.86557  0.55850  1.0000
  H   H1485     1.0  0.55065  0.86825  0.62645  1.0000
  O   O500      1.0  0.56494  0.87887  0.63984  1.0000
  H   H1486     1.0  0.58585  0.87885  0.62906  1.0000
  H   H1487     1.0  0.57289  0.84164  0.69562  1.0000
  O   O501      1.0  0.57194  0.86418  0.69489  1.0000
  H   H1488     1.0  0.56775  0.87067  0.67180  1.0000
  H   H1489     1.0  0.55230  0.85572  0.76156  1.0000
  O   O502      1.0  0.54153  0.86896  0.74526  1.0000
  H   H1490     1.0  0.55386  0.87073  0.72584  1.0000
  H   H1491     1.0  0.54465  0.87530  0.83544  1.0000
  O   O503      1.0  0.56732  0.86442  0.83758  1.0000
  H   H1492     1.0  0.58174  0.88011  0.84356  1.0000
  H   H1493     1.0  0.60801  0.12453  0.17621  1.0000
  O   O504      1.0  0.62857  0.13236  0.17931  1.0000
  H   H1494     1.0  0.62678  0.15498  0.17840  1.0000
  H   H1495     1.0  0.59181  0.11994  0.24712  1.0000
  O   O505      1.0  0.61338  0.11119  0.25486  1.0000
  H   H1496     1.0  0.62804  0.11192  0.23798  1.0000
  H   H1497     1.0  0.62144  0.16615  0.28592  1.0000
  O   O506      1.0  0.62027  0.14503  0.29821  1.0000
  H   H1498     1.0  0.61923  0.12812  0.27918  1.0000
  H   H1499     1.0  0.63953  0.13789  0.31822  1.0000
  O   O507      1.0  0.65730  0.12821  0.33490  1.0000
  H   H1500     1.0  0.65132  0.10712  0.33881  1.0000
  H   H1501     1.0  0.60968  0.14226  0.43735  1.0000
  O   O508      1.0  0.62958  0.14798  0.45020  1.0000
  H   H1502     1.0  0.65476  0.14100  0.43907  1.0000
  H   H1503     1.0  0.62692  0.13678  0.47053  1.0000
  O   O509      1.0  0.61928  0.11540  0.49836  1.0000
  H   H1504     1.0  0.63404  0.10506  0.51140  1.0000
  H   H1505     1.0  0.61445  0.16510  0.57365  1.0000
  O   O510      1.0  0.61785  0.14323  0.56996  1.0000
  H   H1506     1.0  0.64831  0.13544  0.56100  1.0000
  H   H1507     1.0  0.63797  0.13771  0.66671  1.0000
  O   O511      1.0  0.64368  0.13083  0.63974  1.0000
  H   H1508     1.0  0.62669  0.12712  0.62599  1.0000
  H   H1509     1.0  0.63267  0.16306  0.69889  1.0000
  O   O512      1.0  0.62733  0.14329  0.68992  1.0000
  H   H1510     1.0  0.62948  0.12029  0.71382  1.0000
  H   H1511     1.0  0.59870  0.11766  0.74193  1.0000
  O   O513      1.0  0.62517  0.10613  0.73272  1.0000
  H   H1512     1.0  0.64012  0.10993  0.74903  1.0000
  H   H1513     1.0  0.61767  0.11751  0.81076  1.0000
  O   O514      1.0  0.63891  0.12145  0.80501  1.0000
  H   H1514     1.0  0.64008  0.14416  0.80453  1.0000
  H   H1515     1.0  0.61643  0.17679  0.11885  1.0000
  O   O515      1.0  0.63470  0.18679  0.11165  1.0000
  H   H1516     1.0  0.63268  0.21127  0.11105  1.0000
  H   H1517     1.0  0.62322  0.21781  0.18096  1.0000
  O   O516      1.0  0.62726  0.19525  0.18500  1.0000
  H   H1518     1.0  0.65049  0.19454  0.18823  1.0000
  H   H1519     1.0  0.60425  0.19098  0.24834  1.0000
  O   O517      1.0  0.62050  0.19018  0.26529  1.0000
  H   H1520     1.0  0.63732  0.20390  0.26122  1.0000
  H   H1521     1.0  0.60402  0.19612  0.74615  1.0000
  O   O518      1.0  0.61079  0.17782  0.75715  1.0000
  H   H1522     1.0  0.62562  0.18183  0.77992  1.0000
  H   H1523     1.0  0.62770  0.19848  0.81688  1.0000
  O   O519      1.0  0.63885  0.18516  0.80262  1.0000
  H   H1524     1.0  0.66531  0.19271  0.80421  1.0000
  H   H1525     1.0  0.62626  0.16750  0.87917  1.0000
  O   O520      1.0  0.64348  0.17998  0.88494  1.0000
  H   H1526     1.0  0.63904  0.20514  0.89136  1.0000
  H   H1527     1.0  0.62692  0.24859  0.08883  1.0000
  O   O521      1.0  0.63187  0.24204  0.10986  1.0000
  H   H1528     1.0  0.65367  0.25325  0.11670  1.0000
  H   H1529     1.0  0.60161  0.26258  0.19126  1.0000
  O   O522      1.0  0.62031  0.25216  0.18504  1.0000
  H   H1530     1.0  0.63786  0.26445  0.19130  1.0000
  H   H1531     1.0  0.62246  0.25909  0.75609  1.0000
  O   O523      1.0  0.62512  0.23974  0.76747  1.0000
  H   H1532     1.0  0.64390  0.23090  0.75910  1.0000
  H   H1533     1.0  0.62329  0.24330  0.80274  1.0000
  O   O524      1.0  0.62379  0.24249  0.82653  1.0000
  H   H1534     1.0  0.64415  0.24808  0.83385  1.0000
  H   H1535     1.0  0.61626  0.24070  0.88937  1.0000
  O   O525      1.0  0.63675  0.23227  0.89506  1.0000
  H   H1536     1.0  0.65412  0.24402  0.88394  1.0000
  H   H1537     1.0  0.62080  0.34112  0.12597  1.0000
  O   O526      1.0  0.61340  0.31852  0.12262  1.0000
  H   H1538     1.0  0.62820  0.30333  0.12889  1.0000
  H   H1539     1.0  0.61824  0.30259  0.84641  1.0000
  O   O527      1.0  0.61810  0.31109  0.86737  1.0000
  H   H1540     1.0  0.63990  0.31241  0.87407  1.0000
  H   H1541     1.0  0.62344  0.39111  0.13091  1.0000
  O   O528      1.0  0.63201  0.37053  0.12997  1.0000
  H   H1542     1.0  0.65351  0.37165  0.11993  1.0000
  H   H1543     1.0  0.62924  0.40119  0.86082  1.0000
  O   O529      1.0  0.62959  0.37746  0.85256  1.0000
  H   H1544     1.0  0.62729  0.36160  0.86825  1.0000
  H   H1545     1.0  0.63173  0.46112  0.12411  1.0000
  O   O530      1.0  0.62972  0.43959  0.11502  1.0000
  H   H1546     1.0  0.64932  0.43386  0.10662  1.0000
  H   H1547     1.0  0.61738  0.44148  0.85311  1.0000
  O   O531      1.0  0.62962  0.42965  0.86747  1.0000
  H   H1548     1.0  0.65212  0.43909  0.87192  1.0000
  H   H1549     1.0  0.62931  0.51236  0.12662  1.0000
  O   O532      1.0  0.63652  0.49398  0.13742  1.0000
  H   H1550     1.0  0.65926  0.49691  0.14095  1.0000
  H   H1551     1.0  0.62793  0.52651  0.85434  1.0000
  O   O533      1.0  0.62737  0.50126  0.84776  1.0000
  H   H1552     1.0  0.63522  0.49011  0.86567  1.0000
  H   H1553     1.0  0.62662  0.58152  0.11545  1.0000
  O   O534      1.0  0.62027  0.55798  0.10745  1.0000
  H   H1554     1.0  0.62670  0.55470  0.08613  1.0000
  H   H1555     1.0  0.62382  0.57110  0.85421  1.0000
  O   O535      1.0  0.63188  0.55299  0.86482  1.0000
  H   H1556     1.0  0.65600  0.55728  0.87117  1.0000
  H   H1557     1.0  0.62505  0.62906  0.12099  1.0000
  O   O536      1.0  0.63434  0.60772  0.12498  1.0000
  H   H1558     1.0  0.65750  0.61072  0.12652  1.0000
  H   H1559     1.0  0.62402  0.63901  0.86572  1.0000
  O   O537      1.0  0.62271  0.61481  0.86751  1.0000
  H   H1560     1.0  0.63135  0.60856  0.88727  1.0000
  H   H1561     1.0  0.59691  0.67567  0.12213  1.0000
  O   O538      1.0  0.61578  0.66167  0.11745  1.0000
  H   H1562     1.0  0.63071  0.67344  0.10609  1.0000
  H   H1563     1.0  0.59775  0.67542  0.86456  1.0000
  O   O539      1.0  0.62051  0.66922  0.86249  1.0000
  H   H1564     1.0  0.63278  0.68736  0.86598  1.0000
  H   H1565     1.0  0.62840  0.73956  0.13144  1.0000
  O   O540      1.0  0.64347  0.74843  0.11754  1.0000
  H   H1566     1.0  0.63899  0.77132  0.11592  1.0000
  H   H1567     1.0  0.59560  0.73902  0.18890  1.0000
  O   O541      1.0  0.61572  0.74783  0.18511  1.0000
  H   H1568     1.0  0.63112  0.73369  0.19351  1.0000
  H   H1569     1.0  0.60158  0.75912  0.73897  1.0000
  O   O542      1.0  0.61106  0.74339  0.75232  1.0000
  H   H1570     1.0  0.62852  0.73454  0.74143  1.0000
  H   H1571     1.0  0.59816  0.74209  0.82387  1.0000
  O   O543      1.0  0.61523  0.74841  0.81114  1.0000
  H   H1572     1.0  0.61226  0.74311  0.78848  1.0000
  H   H1573     1.0  0.60393  0.74365  0.87660  1.0000
  O   O544      1.0  0.62515  0.73343  0.88258  1.0000
  H   H1574     1.0  0.62628  0.73187  0.90511  1.0000
  H   H1575     1.0  0.61546  0.81305  0.11354  1.0000
  O   O545      1.0  0.63627  0.80742  0.12014  1.0000
  H   H1576     1.0  0.63514  0.80827  0.14397  1.0000
  H   H1577     1.0  0.62336  0.78015  0.18120  1.0000
  O   O546      1.0  0.62963  0.80240  0.17765  1.0000
  H   H1578     1.0  0.63043  0.81281  0.19773  1.0000
  H   H1579     1.0  0.60486  0.80899  0.24619  1.0000
  O   O547      1.0  0.62531  0.81690  0.24281  1.0000
  H   H1580     1.0  0.64006  0.80427  0.25468  1.0000
  H   H1581     1.0  0.60128  0.81861  0.74881  1.0000
  O   O548      1.0  0.62282  0.82211  0.75244  1.0000
  H   H1582     1.0  0.63516  0.81348  0.73499  1.0000
  H   H1583     1.0  0.63097  0.77525  0.81437  1.0000
  O   O549      1.0  0.64103  0.79741  0.81477  1.0000
  H   H1584     1.0  0.63077  0.80903  0.79830  1.0000
  H   H1585     1.0  0.62349  0.80832  0.88362  1.0000
  O   O550      1.0  0.64302  0.80761  0.87342  1.0000
  H   H1586     1.0  0.64045  0.80475  0.85018  1.0000
  H   H1587     1.0  0.63288  0.87787  0.15882  1.0000
  O   O551      1.0  0.65040  0.87899  0.17241  1.0000
  H   H1588     1.0  0.64478  0.87559  0.19491  1.0000
  H   H1589     1.0  0.63453  0.84822  0.23590  1.0000
  O   O552      1.0  0.64346  0.86927  0.23006  1.0000
  H   H1590     1.0  0.63076  0.88516  0.23919  1.0000
  H   H1591     1.0  0.62160  0.86562  0.28872  1.0000
  O   O553      1.0  0.63969  0.86710  0.30149  1.0000
  H   H1592     1.0  0.63270  0.86828  0.32379  1.0000
  H   H1593     1.0  0.65034  0.86029  0.36589  1.0000
  O   O554      1.0  0.62979  0.86916  0.36016  1.0000
  H   H1594     1.0  0.62876  0.88975  0.36893  1.0000
  H   H1595     1.0  0.64381  0.85792  0.45264  1.0000
  O   O555      1.0  0.63386  0.87811  0.45183  1.0000
  H   H1596     1.0  0.61202  0.87321  0.44209  1.0000
  H   H1597     1.0  0.63356  0.88892  0.48148  1.0000
  O   O556      1.0  0.63660  0.89684  0.50507  1.0000
  H   H1598     1.0  0.62858  0.91757  0.50626  1.0000
  H   H1599     1.0  0.63270  0.85038  0.55681  1.0000
  O   O557      1.0  0.62041  0.86924  0.55488  1.0000
  H   H1600     1.0  0.62729  0.88070  0.53504  1.0000
  H   H1601     1.0  0.63468  0.88031  0.62576  1.0000
  O   O558      1.0  0.61576  0.87672  0.61480  1.0000
  H   H1602     1.0  0.61892  0.87727  0.59156  1.0000
  H   H1603     1.0  0.60327  0.88025  0.70592  1.0000
  O   O559      1.0  0.62245  0.89146  0.71238  1.0000
  H   H1604     1.0  0.62176  0.91204  0.70372  1.0000
  H   H1605     1.0  0.63631  0.85263  0.76046  1.0000
  O   O560      1.0  0.64575  0.87392  0.76251  1.0000
  H   H1606     1.0  0.63693  0.88508  0.74359  1.0000
  H   H1607     1.0  0.62888  0.87032  0.82882  1.0000
  O   O561      1.0  0.64578  0.88141  0.81983  1.0000
  H   H1608     1.0  0.64415  0.88108  0.79568  1.0000
  H   H1609     1.0  0.66456  0.12186  0.18336  1.0000
  O   O562      1.0  0.68504  0.11853  0.19243  1.0000
  H   H1610     1.0  0.70319  0.12513  0.17962  1.0000
  H   H1611     1.0  0.68963  0.12684  0.22156  1.0000
  O   O563      1.0  0.69672  0.13821  0.24256  1.0000
  H   H1612     1.0  0.71595  0.15150  0.23955  1.0000
  H   H1613     1.0  0.69524  0.13319  0.26755  1.0000
  O   O564      1.0  0.69902  0.13332  0.29729  1.0000
  H   H1614     1.0  0.68236  0.13007  0.31385  1.0000
  H   H1615     1.0  0.67832  0.13311  0.36363  1.0000
  O   O565      1.0  0.69431  0.13579  0.38013  1.0000
  H   H1616     1.0  0.70739  0.15530  0.37488  1.0000
  H   H1617     1.0  0.69126  0.13246  0.45182  1.0000
  O   O566      1.0  0.67804  0.13337  0.43235  1.0000
  H   H1618     1.0  0.68646  0.13364  0.40744  1.0000
  H   H1619     1.0  0.70780  0.11987  0.49793  1.0000
  O   O567      1.0  0.70386  0.13581  0.48275  1.0000
  H   H1620     1.0  0.71233  0.15649  0.49028  1.0000
  H   H1621     1.0  0.68043  0.14909  0.54822  1.0000
  O   O568      1.0  0.67114  0.13097  0.55749  1.0000
  H   H1622     1.0  0.68249  0.12422  0.58598  1.0000
  H   H1623     1.0  0.66486  0.12538  0.62831  1.0000
  O   O569      1.0  0.68773  0.12093  0.60997  1.0000
  H   H1624     1.0  0.70444  0.10707  0.61376  1.0000
  H   H1625     1.0  0.70078  0.13438  0.71258  1.0000
  O   O570      1.0  0.71313  0.13817  0.69246  1.0000
  H   H1626     1.0  0.72884  0.12242  0.69105  1.0000
  H   H1627     1.0  0.69035  0.11164  0.75653  1.0000
  O   O571      1.0  0.68998  0.13086  0.74508  1.0000
  H   H1628     1.0  0.70636  0.14493  0.75446  1.0000
  H   H1629     1.0  0.67913  0.11502  0.81602  1.0000
  O   O572      1.0  0.69883  0.12350  0.82270  1.0000
  H   H1630     1.0  0.69376  0.13948  0.83848  1.0000
  H   H1631     1.0  0.66059  0.17898  0.12223  1.0000
  O   O573      1.0  0.68290  0.17544  0.13266  1.0000
  H   H1632     1.0  0.69911  0.18102  0.11866  1.0000
  H   H1633     1.0  0.68424  0.18503  0.16101  1.0000
  O   O574      1.0  0.68299  0.19470  0.18504  1.0000
  H   H1634     1.0  0.69039  0.17968  0.20009  1.0000
  H   H1635     1.0  0.69036  0.18534  0.83831  1.0000
  O   O575      1.0  0.69014  0.19751  0.80967  1.0000
  H   H1636     1.0  0.70168  0.18395  0.79605  1.0000
  H   H1637     1.0  0.66673  0.17494  0.87397  1.0000
  O   O576      1.0  0.69010  0.17273  0.85989  1.0000
  H   H1638     1.0  0.71203  0.17220  0.86797  1.0000
  H   H1639     1.0  0.68331  0.29019  0.12228  1.0000
  O   O577      1.0  0.67826  0.26667  0.12244  1.0000
  H   H1640     1.0  0.69768  0.25553  0.12353  1.0000
  H   H1641     1.0  0.67646  0.28282  0.86894  1.0000
  O   O578      1.0  0.67604  0.25958  0.86508  1.0000
  H   H1642     1.0  0.69760  0.25327  0.86560  1.0000
  H   H1643     1.0  0.69199  0.34094  0.11697  1.0000
  O   O579      1.0  0.69690  0.31870  0.12247  1.0000
  H   H1644     1.0  0.71876  0.31513  0.12374  1.0000
  H   H1645     1.0  0.68598  0.33693  0.87118  1.0000
  O   O580      1.0  0.67582  0.31589  0.88029  1.0000
  H   H1646     1.0  0.68172  0.31452  0.90204  1.0000
  H   H1647     1.0  0.69182  0.39638  0.11626  1.0000
  O   O581      1.0  0.68290  0.37295  0.10728  1.0000
  H   H1648     1.0  0.68382  0.37296  0.08464  1.0000
  H   H1649     1.0  0.68179  0.37905  0.85873  1.0000
  O   O582      1.0  0.69664  0.36313  0.86242  1.0000
  H   H1650     1.0  0.71875  0.37201  0.86789  1.0000
  H   H1651     1.0  0.69374  0.42594  0.14676  1.0000
  O   O583      1.0  0.69906  0.42211  0.12500  1.0000
  H   H1652     1.0  0.72251  0.43036  0.11862  1.0000
  H   H1653     1.0  0.68750  0.47172  0.86836  1.0000
  O   O584      1.0  0.67837  0.44983  0.87740  1.0000
  H   H1654     1.0  0.69310  0.43824  0.88910  1.0000
  H   H1655     1.0  0.69598  0.52479  0.12884  1.0000
  O   O585      1.0  0.69275  0.49998  0.13860  1.0000
  H   H1656     1.0  0.69763  0.48533  0.12215  1.0000
  H   H1657     1.0  0.68879  0.51626  0.86068  1.0000
  O   O586      1.0  0.69913  0.49664  0.85771  1.0000
  H   H1658     1.0  0.72219  0.50015  0.86762  1.0000
  H   H1659     1.0  0.68612  0.56479  0.13156  1.0000
  O   O587      1.0  0.69910  0.55076  0.12007  1.0000
  H   H1660     1.0  0.72207  0.56121  0.11686  1.0000
  H   H1661     1.0  0.69138  0.58679  0.86966  1.0000
  O   O588      1.0  0.68335  0.56228  0.87612  1.0000
  H   H1662     1.0  0.69119  0.55662  0.89639  1.0000
  H   H1663     1.0  0.69010  0.64257  0.12595  1.0000
  O   O589      1.0  0.68947  0.61817  0.12654  1.0000
  H   H1664     1.0  0.70008  0.61094  0.10815  1.0000
  H   H1665     1.0  0.68393  0.62835  0.86847  1.0000
  O   O590      1.0  0.69908  0.61273  0.86505  1.0000
  H   H1666     1.0  0.72342  0.62147  0.87170  1.0000
  H   H1667     1.0  0.68298  0.68759  0.13614  1.0000
  O   O591      1.0  0.69328  0.67302  0.12269  1.0000
  H   H1668     1.0  0.71669  0.67771  0.12202  1.0000
  H   H1669     1.0  0.68853  0.71255  0.85941  1.0000
  O   O592      1.0  0.69920  0.68893  0.86003  1.0000
  H   H1670     1.0  0.70764  0.68535  0.88069  1.0000
  H   H1671     1.0  0.67651  0.74931  0.12295  1.0000
  O   O593      1.0  0.69791  0.75724  0.12671  1.0000
  H   H1672     1.0  0.69771  0.78073  0.12544  1.0000
  H   H1673     1.0  0.65267  0.73766  0.86863  1.0000
  O   O594      1.0  0.67562  0.73819  0.86024  1.0000
  H   H1674     1.0  0.68606  0.75691  0.86639  1.0000
  H   H1675     1.0  0.67263  0.81576  0.11393  1.0000
  O   O595      1.0  0.69440  0.81483  0.11997  1.0000
  H   H1676     1.0  0.69735  0.83035  0.13701  1.0000
  H   H1677     1.0  0.67850  0.78879  0.19110  1.0000
  O   O596      1.0  0.69689  0.80025  0.19503  1.0000
  H   H1678     1.0  0.69642  0.82091  0.18371  1.0000
  H   H1679     1.0  0.67363  0.80104  0.80305  1.0000
  O   O597      1.0  0.69426  0.80995  0.79772  1.0000
  H   H1680     1.0  0.69635  0.83024  0.81025  1.0000
  H   H1681     1.0  0.67791  0.80836  0.88112  1.0000
  O   O598      1.0  0.70006  0.81058  0.87601  1.0000
  H   H1682     1.0  0.70032  0.82736  0.86056  1.0000
  H   H1683     1.0  0.68002  0.86525  0.16813  1.0000
  O   O599      1.0  0.69911  0.85178  0.16739  1.0000
  H   H1684     1.0  0.71851  0.86300  0.16889  1.0000
  H   H1685     1.0  0.67962  0.86985  0.23579  1.0000
  O   O600      1.0  0.70117  0.86663  0.24276  1.0000
  H   H1686     1.0  0.70007  0.85791  0.26363  1.0000
  H   H1687     1.0  0.67300  0.86976  0.30321  1.0000
  O   O601      1.0  0.69424  0.86921  0.31273  1.0000
  H   H1688     1.0  0.69147  0.86532  0.33563  1.0000
  H   H1689     1.0  0.70212  0.83736  0.36883  1.0000
  O   O602      1.0  0.68532  0.85440  0.37022  1.0000
  H   H1690     1.0  0.69069  0.86755  0.38802  1.0000
  H   H1691     1.0  0.69111  0.86277  0.43841  1.0000
  O   O603      1.0  0.69430  0.88388  0.42994  1.0000
  H   H1692     1.0  0.67536  0.89496  0.43405  1.0000
  H   H1693     1.0  0.69233  0.86231  0.49446  1.0000
  O   O604      1.0  0.69776  0.88237  0.50385  1.0000
  H   H1694     1.0  0.67876  0.89450  0.50192  1.0000
  H   H1695     1.0  0.69785  0.85755  0.56626  1.0000
  O   O605      1.0  0.70601  0.87891  0.56486  1.0000
  H   H1696     1.0  0.70224  0.88479  0.54269  1.0000
  H   H1697     1.0  0.68004  0.85508  0.62124  1.0000
  O   O606      1.0  0.68661  0.87585  0.62680  1.0000
  H   H1698     1.0  0.69328  0.88573  0.60725  1.0000
  H   H1699     1.0  0.69598  0.84874  0.68875  1.0000
  O   O607      1.0  0.70604  0.86905  0.68477  1.0000
  H   H1700     1.0  0.69771  0.87642  0.66449  1.0000
  H   H1701     1.0  0.67933  0.87067  0.75712  1.0000
  O   O608      1.0  0.70128  0.86926  0.74976  1.0000
  H   H1702     1.0  0.70111  0.87319  0.72730  1.0000
  H   H1703     1.0  0.67447  0.86887  0.82745  1.0000
  O   O609      1.0  0.69466  0.85676  0.83001  1.0000
  H   H1704     1.0  0.71244  0.86985  0.82905  1.0000
  H   H1705     1.0  0.74570  0.15634  0.17876  1.0000
  O   O610      1.0  0.73618  0.13570  0.17239  1.0000
  H   H1706     1.0  0.74984  0.11951  0.17888  1.0000
  H   H1707     1.0  0.76284  0.14823  0.25346  1.0000
  O   O611      1.0  0.78254  0.13595  0.25751  1.0000
  H   H1708     1.0  0.79907  0.15253  0.25472  1.0000
  H   H1709     1.0  0.76065  0.15147  0.31204  1.0000
  O   O612      1.0  0.77572  0.12585  0.30740  1.0000
  H   H1710     1.0  0.79788  0.12455  0.30865  1.0000
  H   H1711     1.0  0.76013  0.12167  0.37859  1.0000
  O   O613      1.0  0.78204  0.12588  0.38017  1.0000
  H   H1712     1.0  0.79089  0.15546  0.37809  1.0000
  H   H1713     1.0  0.76443  0.15254  0.43258  1.0000
  O   O614      1.0  0.77439  0.12904  0.43153  1.0000
  H   H1714     1.0  0.79638  0.13020  0.42911  1.0000
  H   H1715     1.0  0.77940  0.11964  0.48904  1.0000
  O   O615      1.0  0.78925  0.12828  0.50733  1.0000
  H   H1716     1.0  0.80210  0.15172  0.50381  1.0000
  H   H1717     1.0  0.75667  0.14451  0.55783  1.0000
  O   O616      1.0  0.76282  0.12214  0.55504  1.0000
  H   H1718     1.0  0.77879  0.12296  0.53109  1.0000
  H   H1719     1.0  0.76159  0.14622  0.60972  1.0000
  O   O617      1.0  0.78038  0.13358  0.60504  1.0000
  H   H1720     1.0  0.79762  0.14978  0.60625  1.0000
  H   H1721     1.0  0.76924  0.15520  0.68031  1.0000
  O   O618      1.0  0.77560  0.13326  0.68504  1.0000
  H   H1722     1.0  0.79691  0.12972  0.68066  1.0000
  H   H1723     1.0  0.75131  0.15035  0.74681  1.0000
  O   O619      1.0  0.77359  0.13354  0.73992  1.0000
  H   H1724     1.0  0.79271  0.14989  0.74094  1.0000
  H   H1725     1.0  0.73292  0.11750  0.82922  1.0000
  O   O620      1.0  0.75416  0.12087  0.83759  1.0000
  H   H1726     1.0  0.76868  0.11887  0.82080  1.0000
  H   H1727     1.0  0.75303  0.16673  0.11069  1.0000
  O   O621      1.0  0.76097  0.18684  0.11644  1.0000
  H   H1728     1.0  0.76265  0.18632  0.13923  1.0000
  H   H1729     1.0  0.74683  0.20598  0.18609  1.0000
  O   O622      1.0  0.75929  0.18514  0.19001  1.0000
  H   H1730     1.0  0.78314  0.18929  0.18551  1.0000
  H   H1731     1.0  0.73410  0.18837  0.25173  1.0000
  O   O623      1.0  0.74091  0.17052  0.23991  1.0000
  H   H1732     1.0  0.75104  0.17773  0.21686  1.0000
  H   H1733     1.0  0.71539  0.14717  0.30388  1.0000
  O   O624      1.0  0.74553  0.17052  0.31496  1.0000
  H   H1734     1.0  0.75575  0.18920  0.30851  1.0000
  H   H1735     1.0  0.73559  0.19165  0.37895  1.0000
  O   O625      1.0  0.72237  0.18036  0.36500  1.0000
  H   H1736     1.0  0.73312  0.17633  0.34353  1.0000
  H   H1737     1.0  0.73339  0.18566  0.43613  1.0000
  O   O626      1.0  0.75461  0.17991  0.43487  1.0000
  H   H1738     1.0  0.76954  0.19839  0.43357  1.0000
  H   H1739     1.0  0.73457  0.20206  0.49226  1.0000
  O   O627      1.0  0.72269  0.18555  0.50296  1.0000
  H   H1740     1.0  0.73020  0.18450  0.52474  1.0000
  H   H1741     1.0  0.74415  0.18379  0.58169  1.0000
  O   O628      1.0  0.75074  0.18070  0.55932  1.0000
  H   H1742     1.0  0.76986  0.19155  0.55645  1.0000
  H   H1743     1.0  0.71755  0.16407  0.61641  1.0000
  O   O629      1.0  0.73801  0.17254  0.61750  1.0000
  H   H1744     1.0  0.74179  0.17892  0.64034  1.0000
  H   H1745     1.0  0.72836  0.16429  0.68375  1.0000
  O   O630      1.0  0.74517  0.18009  0.67495  1.0000
  H   H1746     1.0  0.74448  0.19953  0.68602  1.0000
  H   H1747     1.0  0.72795  0.18223  0.74364  1.0000
  O   O631      1.0  0.73363  0.16555  0.75770  1.0000
  H   H1748     1.0  0.74951  0.17792  0.78599  1.0000
  H   H1749     1.0  0.75102  0.21050  0.80630  1.0000
  O   O632      1.0  0.76002  0.18884  0.80436  1.0000
  H   H1750     1.0  0.78928  0.19005  0.80571  1.0000
  H   H1751     1.0  0.75124  0.14929  0.85920  1.0000
  O   O633      1.0  0.74601  0.17119  0.86582  1.0000
  H   H1752     1.0  0.75130  0.18210  0.84637  1.0000
  H   H1753     1.0  0.74437  0.27044  0.11868  1.0000
  O   O634      1.0  0.73613  0.24956  0.12493  1.0000
  H   H1754     1.0  0.74667  0.23304  0.11396  1.0000
  H   H1755     1.0  0.70777  0.22072  0.18437  1.0000
  O   O635      1.0  0.72892  0.22972  0.18221  1.0000
  H   H1756     1.0  0.73117  0.24048  0.16167  1.0000
  H   H1757     1.0  0.72908  0.23345  0.31086  1.0000
  O   O636      1.0  0.74777  0.23964  0.32196  1.0000
  H   H1758     1.0  0.75827  0.25537  0.30956  1.0000
  H   H1759     1.0  0.74820  0.24343  0.35417  1.0000
  O   O637      1.0  0.75241  0.24697  0.37759  1.0000
  H   H1760     1.0  0.77575  0.24745  0.38105  1.0000
  H   H1761     1.0  0.74127  0.25209  0.48637  1.0000
  O   O638      1.0  0.75468  0.23459  0.48247  1.0000
  H   H1762     1.0  0.77492  0.23761  0.49449  1.0000
  H   H1763     1.0  0.74099  0.24604  0.63206  1.0000
  O   O639      1.0  0.74867  0.24213  0.61112  1.0000
  H   H1764     1.0  0.77154  0.24019  0.61291  1.0000
  H   H1765     1.0  0.74464  0.25235  0.78137  1.0000
  O   O640      1.0  0.75456  0.25922  0.76014  1.0000
  H   H1766     1.0  0.76080  0.28154  0.76150  1.0000
  H   H1767     1.0  0.71330  0.22920  0.80881  1.0000
  O   O641      1.0  0.73370  0.23941  0.81007  1.0000
  H   H1768     1.0  0.73674  0.24771  0.83341  1.0000
  H   H1769     1.0  0.74808  0.27590  0.87392  1.0000
  O   O642      1.0  0.73843  0.25402  0.86498  1.0000
  H   H1770     1.0  0.74626  0.23658  0.87658  1.0000
  H   H1771     1.0  0.75711  0.32489  0.10490  1.0000
  O   O643      1.0  0.75701  0.30389  0.11490  1.0000
  H   H1772     1.0  0.77763  0.30245  0.12375  1.0000
  H   H1773     1.0  0.73325  0.30990  0.18885  1.0000
  O   O644      1.0  0.75222  0.32106  0.18495  1.0000
  H   H1774     1.0  0.74797  0.33991  0.17331  1.0000
  H   H1775     1.0  0.74004  0.32471  0.76325  1.0000
  O   O645      1.0  0.75903  0.31645  0.75533  1.0000
  H   H1776     1.0  0.77280  0.33480  0.75354  1.0000
  H   H1777     1.0  0.72371  0.30944  0.81837  1.0000
  O   O646      1.0  0.74299  0.31846  0.82503  1.0000
  H   H1778     1.0  0.74420  0.34127  0.81653  1.0000
  H   H1779     1.0  0.74947  0.31329  0.85962  1.0000
  O   O647      1.0  0.75679  0.30364  0.87983  1.0000
  H   H1780     1.0  0.77907  0.30962  0.88229  1.0000
  H   H1781     1.0  0.75197  0.37125  0.12125  1.0000
  O   O648      1.0  0.76170  0.36294  0.10264  1.0000
  H   H1782     1.0  0.78384  0.36943  0.10379  1.0000
  H   H1783     1.0  0.74172  0.38122  0.19185  1.0000
  O   O649      1.0  0.75006  0.38276  0.17009  1.0000
  H   H1784     1.0  0.74900  0.40441  0.16418  1.0000
  H   H1785     1.0  0.71474  0.37130  0.23878  1.0000
  O   O650      1.0  0.73389  0.37263  0.22751  1.0000
  H   H1786     1.0  0.74684  0.35657  0.23627  1.0000
  H   H1787     1.0  0.73168  0.38378  0.80128  1.0000
  O   O651      1.0  0.74792  0.36835  0.80252  1.0000
  H   H1788     1.0  0.76794  0.37939  0.80359  1.0000
  H   H1789     1.0  0.75384  0.40566  0.87415  1.0000
  O   O652      1.0  0.74547  0.38269  0.87515  1.0000
  H   H1790     1.0  0.75877  0.36894  0.88628  1.0000
  H   H1791     1.0  0.75758  0.46226  0.11406  1.0000
  O   O653      1.0  0.74815  0.43855  0.11166  1.0000
  H   H1792     1.0  0.75989  0.42490  0.09865  1.0000
  H   H1793     1.0  0.74291  0.43885  0.20576  1.0000
  O   O654      1.0  0.75686  0.44694  0.19022  1.0000
  H   H1794     1.0  0.74875  0.46834  0.18271  1.0000
  H   H1795     1.0  0.75410  0.44626  0.85588  1.0000
  O   O655      1.0  0.76386  0.43465  0.87236  1.0000
  H   H1796     1.0  0.78725  0.44007  0.87273  1.0000
  H   H1797     1.0  0.75679  0.49426  0.14118  1.0000
  O   O656      1.0  0.76625  0.48884  0.12006  1.0000
  H   H1798     1.0  0.78860  0.49346  0.11843  1.0000
  H   H1799     1.0  0.71687  0.49757  0.15908  1.0000
  O   O657      1.0  0.73852  0.49651  0.16996  1.0000
  H   H1800     1.0  0.74418  0.51714  0.17872  1.0000
  H   H1801     1.0  0.75380  0.48497  0.24888  1.0000
  O   O658      1.0  0.76875  0.49906  0.24010  1.0000
  H   H1802     1.0  0.76467  0.51956  0.24909  1.0000
  H   H1803     1.0  0.73667  0.49474  0.77892  1.0000
  O   O659      1.0  0.74986  0.49384  0.79731  1.0000
  H   H1804     1.0  0.73715  0.49745  0.81561  1.0000
  H   H1805     1.0  0.75776  0.52939  0.87356  1.0000
  O   O660      1.0  0.74800  0.50598  0.87733  1.0000
  H   H1806     1.0  0.75904  0.49279  0.89144  1.0000
  H   H1807     1.0  0.75590  0.59621  0.10887  1.0000
  O   O661      1.0  0.74782  0.57305  0.11484  1.0000
  H   H1808     1.0  0.76466  0.55879  0.11422  1.0000
  H   H1809     1.0  0.74177  0.55147  0.20907  1.0000
  O   O662      1.0  0.75445  0.55078  0.19041  1.0000
  H   H1810     1.0  0.75161  0.57239  0.18071  1.0000
  H   H1811     1.0  0.75824  0.56648  0.85075  1.0000
  O   O663      1.0  0.76842  0.55560  0.86745  1.0000
  H   H1812     1.0  0.79341  0.55554  0.86560  1.0000
  H   H1813     1.0  0.76029  0.64293  0.10732  1.0000
  O   O664      1.0  0.76877  0.62246  0.10278  1.0000
  H   H1814     1.0  0.79246  0.62311  0.10610  1.0000
  H   H1815     1.0  0.74599  0.61781  0.19566  1.0000
  O   O665      1.0  0.75143  0.60602  0.17570  1.0000
  H   H1816     1.0  0.73709  0.61114  0.15916  1.0000
  H   H1817     1.0  0.72498  0.63088  0.24082  1.0000
  O   O666      1.0  0.74081  0.63477  0.22515  1.0000
  H   H1818     1.0  0.75426  0.65032  0.23406  1.0000
  H   H1819     1.0  0.73970  0.63145  0.77853  1.0000
  O   O667      1.0  0.75451  0.64691  0.78502  1.0000
  H   H1820     1.0  0.74495  0.66536  0.80652  1.0000
  H   H1821     1.0  0.75845  0.65336  0.88614  1.0000
  O   O668      1.0  0.74776  0.62941  0.88009  1.0000
  H   H1822     1.0  0.75920  0.61236  0.88850  1.0000
  H   H1823     1.0  0.75109  0.68140  0.14894  1.0000
  O   O669      1.0  0.74767  0.68154  0.12496  1.0000
  H   H1824     1.0  0.75139  0.70325  0.11839  1.0000
  H   H1825     1.0  0.73514  0.67761  0.19360  1.0000
  O   O670      1.0  0.75223  0.68656  0.18257  1.0000
  H   H1826     1.0  0.74961  0.71239  0.18294  1.0000
  H   H1827     1.0  0.75759  0.66493  0.76695  1.0000
  O   O671      1.0  0.76189  0.68910  0.75000  1.0000
  H   H1828     1.0  0.76164  0.70833  0.76193  1.0000
  H   H1829     1.0  0.71845  0.68492  0.84097  1.0000
  O   O672      1.0  0.73837  0.68407  0.82259  1.0000
  H   H1830     1.0  0.74350  0.70506  0.81637  1.0000
  H   H1831     1.0  0.76145  0.69750  0.88827  1.0000
  O   O673      1.0  0.77083  0.67673  0.89236  1.0000
  H   H1832     1.0  0.79478  0.67838  0.88969  1.0000
  H   H1833     1.0  0.72320  0.74661  0.12142  1.0000
  O   O674      1.0  0.74841  0.74170  0.12161  1.0000
  H   H1834     1.0  0.75695  0.76156  0.11427  1.0000
  H   H1835     1.0  0.72995  0.75152  0.18480  1.0000
  O   O675      1.0  0.74775  0.74064  0.17744  1.0000
  H   H1836     1.0  0.74960  0.74232  0.15178  1.0000
  H   H1837     1.0  0.75805  0.73503  0.32336  1.0000
  O   O676      1.0  0.75920  0.75283  0.33750  1.0000
  H   H1838     1.0  0.75744  0.77151  0.32508  1.0000
  H   H1839     1.0  0.71178  0.74938  0.38159  1.0000
  O   O677      1.0  0.73147  0.75559  0.38974  1.0000
  H   H1840     1.0  0.74535  0.75208  0.37121  1.0000
  H   H1841     1.0  0.75340  0.74215  0.51387  1.0000
  O   O678      1.0  0.76635  0.76035  0.51494  1.0000
  H   H1842     1.0  0.75547  0.77830  0.50349  1.0000
  H   H1843     1.0  0.75215  0.74282  0.62382  1.0000
  O   O679      1.0  0.74355  0.75384  0.60605  1.0000
  H   H1844     1.0  0.73820  0.77577  0.61370  1.0000
  H   H1845     1.0  0.71942  0.73933  0.76627  1.0000
  O   O680      1.0  0.73598  0.74573  0.75260  1.0000
  H   H1846     1.0  0.73497  0.77071  0.75306  1.0000
  H   H1847     1.0  0.71668  0.75460  0.82341  1.0000
  O   O681      1.0  0.73839  0.75096  0.82502  1.0000
  H   H1848     1.0  0.74870  0.77130  0.81975  1.0000
  H   H1849     1.0  0.74659  0.73934  0.85854  1.0000
  O   O682      1.0  0.75006  0.73088  0.88014  1.0000
  H   H1850     1.0  0.75596  0.74774  0.89366  1.0000
  H   H1851     1.0  0.73952  0.81051  0.10867  1.0000
  O   O683      1.0  0.75924  0.80243  0.11503  1.0000
  H   H1852     1.0  0.76206  0.80747  0.13771  1.0000
  H   H1853     1.0  0.75999  0.81088  0.19164  1.0000
  O   O684      1.0  0.77076  0.81756  0.17256  1.0000
  H   H1854     1.0  0.76717  0.84087  0.17139  1.0000
  H   H1855     1.0  0.72170  0.80250  0.21701  1.0000
  O   O685      1.0  0.74065  0.81230  0.22740  1.0000
  H   H1856     1.0  0.73460  0.83342  0.23156  1.0000
  H   H1857     1.0  0.73396  0.80562  0.29877  1.0000
  O   O686      1.0  0.74971  0.81466  0.31231  1.0000
  H   H1858     1.0  0.75013  0.84007  0.30602  1.0000
  H   H1859     1.0  0.73215  0.80162  0.37865  1.0000
  O   O687      1.0  0.72911  0.81961  0.36505  1.0000
  H   H1860     1.0  0.73745  0.81556  0.34205  1.0000
  H   H1861     1.0  0.75232  0.81536  0.45112  1.0000
  O   O688      1.0  0.76166  0.82477  0.43261  1.0000
  H   H1862     1.0  0.75757  0.84747  0.43200  1.0000
  H   H1863     1.0  0.72142  0.80424  0.48642  1.0000
  O   O689      1.0  0.74296  0.80503  0.49232  1.0000
  H   H1864     1.0  0.74793  0.82605  0.50096  1.0000
  H   H1865     1.0  0.77326  0.77761  0.54141  1.0000
  O   O690      1.0  0.77775  0.79482  0.55776  1.0000
  H   H1866     1.0  0.76747  0.78867  0.57688  1.0000
  H   H1867     1.0  0.71342  0.81099  0.60929  1.0000
  O   O691      1.0  0.73127  0.80735  0.62227  1.0000
  H   H1868     1.0  0.74296  0.82780  0.62446  1.0000
  H   H1869     1.0  0.74692  0.80593  0.67454  1.0000
  O   O692      1.0  0.76376  0.81264  0.68749  1.0000
  H   H1870     1.0  0.76199  0.83522  0.69359  1.0000
  H   H1871     1.0  0.71130  0.80458  0.77694  1.0000
  O   O693      1.0  0.73148  0.80006  0.75984  1.0000
  H   H1872     1.0  0.72949  0.81299  0.74147  1.0000
  H   H1873     1.0  0.75398  0.80230  0.78611  1.0000
  O   O694      1.0  0.76391  0.80259  0.80755  1.0000
  H   H1874     1.0  0.76175  0.82548  0.81606  1.0000
  H   H1875     1.0  0.73235  0.80354  0.88392  1.0000
  O   O695      1.0  0.75514  0.80347  0.88802  1.0000
  H   H1876     1.0  0.76016  0.82420  0.89443  1.0000
  H   H1877     1.0  0.76512  0.88803  0.15938  1.0000
  O   O696      1.0  0.75686  0.87275  0.17343  1.0000
  H   H1878     1.0  0.75747  0.87994  0.19679  1.0000
  H   H1879     1.0  0.73023  0.87998  0.23425  1.0000
  O   O697      1.0  0.75220  0.88406  0.22779  1.0000
  H   H1880     1.0  0.76482  0.88762  0.24591  1.0000
  H   H1881     1.0  0.72193  0.87081  0.30458  1.0000
  O   O698      1.0  0.74644  0.86772  0.30070  1.0000
  H   H1882     1.0  0.75795  0.87970  0.31590  1.0000
  H   H1883     1.0  0.75278  0.84739  0.36883  1.0000
  O   O699      1.0  0.76848  0.86401  0.36761  1.0000
  H   H1884     1.0  0.76620  0.87582  0.38684  1.0000
  H   H1885     1.0  0.72840  0.88748  0.43030  1.0000
  O   O700      1.0  0.75080  0.88247  0.43013  1.0000
  H   H1886     1.0  0.76243  0.90034  0.43625  1.0000
  H   H1887     1.0  0.73705  0.87389  0.50315  1.0000
  O   O701      1.0  0.75449  0.85967  0.50499  1.0000
  H   H1888     1.0  0.77189  0.86788  0.49393  1.0000
  H   H1889     1.0  0.73912  0.88281  0.57107  1.0000
  O   O702      1.0  0.76145  0.88385  0.57735  1.0000
  H   H1890     1.0  0.77379  0.87737  0.55981  1.0000
  H   H1891     1.0  0.74731  0.87067  0.64175  1.0000
  O   O703      1.0  0.75713  0.85685  0.62727  1.0000
  H   H1892     1.0  0.76166  0.86837  0.60654  1.0000
  H   H1893     1.0  0.73720  0.87244  0.69529  1.0000
  O   O704      1.0  0.75922  0.86916  0.70241  1.0000
  H   H1894     1.0  0.77272  0.88319  0.69169  1.0000
  H   H1895     1.0  0.72780  0.87715  0.76399  1.0000
  O   O705      1.0  0.74998  0.88149  0.77212  1.0000
  H   H1896     1.0  0.76311  0.88042  0.75393  1.0000
  H   H1897     1.0  0.77573  0.86738  0.83369  1.0000
  O   O706      1.0  0.76165  0.85681  0.82020  1.0000
  H   H1898     1.0  0.75772  0.86878  0.79878  1.0000
  H   H1899     1.0  0.81320  0.18170  0.11114  1.0000
  O   O707      1.0  0.82860  0.19004  0.12488  1.0000
  H   H1900     1.0  0.83488  0.21199  0.11717  1.0000
  H   H1901     1.0  0.81251  0.22008  0.18140  1.0000
  O   O708      1.0  0.81024  0.19777  0.17755  1.0000
  H   H1902     1.0  0.81897  0.19262  0.15513  1.0000
  H   H1903     1.0  0.80821  0.20148  0.24584  1.0000
  O   O709      1.0  0.81716  0.18029  0.24485  1.0000
  H   H1904     1.0  0.82546  0.17873  0.22374  1.0000
  H   H1905     1.0  0.81419  0.21677  0.31342  1.0000
  O   O710      1.0  0.81491  0.19462  0.32739  1.0000
  H   H1906     1.0  0.82717  0.17954  0.31664  1.0000
  H   H1907     1.0  0.80814  0.18736  0.35314  1.0000
  O   O711      1.0  0.80115  0.17772  0.37764  1.0000
  H   H1908     1.0  0.81546  0.17951  0.39570  1.0000
  H   H1909     1.0  0.81701  0.19868  0.43869  1.0000
  O   O712      1.0  0.83098  0.18274  0.43004  1.0000
  H   H1910     1.0  0.84098  0.17196  0.44693  1.0000
  H   H1911     1.0  0.80327  0.19222  0.49383  1.0000
  O   O713      1.0  0.81484  0.17536  0.50268  1.0000
  H   H1912     1.0  0.82395  0.18313  0.52644  1.0000
  H   H1913     1.0  0.83182  0.17974  0.57124  1.0000
  O   O714      1.0  0.83111  0.19265  0.55252  1.0000
  H   H1914     1.0  0.84273  0.21428  0.55590  1.0000
  H   H1915     1.0  0.80850  0.19805  0.60680  1.0000
  O   O715      1.0  0.81710  0.17794  0.61262  1.0000
  H   H1916     1.0  0.82472  0.18157  0.63509  1.0000
  H   H1917     1.0  0.82756  0.17916  0.68564  1.0000
  O   O716      1.0  0.83107  0.19241  0.66778  1.0000
  H   H1918     1.0  0.84226  0.21133  0.67644  1.0000
  H   H1919     1.0  0.80496  0.19544  0.74147  1.0000
  O   O717      1.0  0.81256  0.17276  0.74518  1.0000
  H   H1920     1.0  0.82217  0.17286  0.76576  1.0000
  H   H1921     1.0  0.81859  0.21834  0.80523  1.0000
  O   O718      1.0  0.81360  0.19376  0.80849  1.0000
  H   H1922     1.0  0.81971  0.18889  0.83171  1.0000
  H   H1923     1.0  0.81583  0.17641  0.87856  1.0000
  O   O719      1.0  0.82601  0.18926  0.86342  1.0000
  H   H1924     1.0  0.82927  0.21128  0.87174  1.0000
  H   H1925     1.0  0.82945  0.25760  0.10297  1.0000
  O   O720      1.0  0.84253  0.24234  0.11238  1.0000
  H   H1926     1.0  0.85420  0.25229  0.13089  1.0000
  H   H1927     1.0  0.81321  0.27951  0.19288  1.0000
  O   O721      1.0  0.81949  0.25680  0.19257  1.0000
  H   H1928     1.0  0.84038  0.25647  0.18376  1.0000
  H   H1929     1.0  0.77831  0.24550  0.24128  1.0000
  O   O722      1.0  0.79871  0.23713  0.24229  1.0000
  H   H1930     1.0  0.81034  0.24546  0.22234  1.0000
  H   H1931     1.0  0.81064  0.24027  0.27463  1.0000
  O   O723      1.0  0.81729  0.23964  0.29746  1.0000
  H   H1932     1.0  0.83880  0.24739  0.30097  1.0000
  H   H1933     1.0  0.80508  0.27286  0.39919  1.0000
  O   O724      1.0  0.80563  0.25198  0.39010  1.0000
  H   H1934     1.0  0.82763  0.24993  0.37896  1.0000
  H   H1935     1.0  0.77627  0.23322  0.45329  1.0000
  O   O725      1.0  0.78934  0.22231  0.43751  1.0000
  H   H1936     1.0  0.79656  0.23466  0.41861  1.0000
  H   H1937     1.0  0.79977  0.25536  0.52552  1.0000
  O   O726      1.0  0.80320  0.24056  0.50865  1.0000
  H   H1938     1.0  0.82529  0.24312  0.50156  1.0000
  H   H1939     1.0  0.80375  0.25757  0.59333  1.0000
  O   O727      1.0  0.80566  0.23972  0.60749  1.0000
  H   H1940     1.0  0.82558  0.24258  0.61806  1.0000
  H   H1941     1.0  0.77945  0.23784  0.74732  1.0000
  O   O728      1.0  0.79612  0.22498  0.73736  1.0000
  H   H1942     1.0  0.80314  0.23550  0.71862  1.0000
  H   H1943     1.0  0.80795  0.26404  0.80638  1.0000
  O   O729      1.0  0.82404  0.24726  0.80503  1.0000
  H   H1944     1.0  0.84207  0.25515  0.81656  1.0000
  H   H1945     1.0  0.82551  0.25531  0.89572  1.0000
  O   O730      1.0  0.83401  0.24307  0.87900  1.0000
  H   H1946     1.0  0.84630  0.25662  0.86432  1.0000
  H   H1947     1.0  0.81822  0.32887  0.10884  1.0000
  O   O731      1.0  0.81505  0.31118  0.12251  1.0000
  H   H1948     1.0  0.83239  0.30981  0.13647  1.0000
  H   H1949     1.0  0.78256  0.31408  0.19423  1.0000
  O   O732      1.0  0.80552  0.31158  0.19743  1.0000
  H   H1950     1.0  0.81437  0.33010  0.18857  1.0000
  H   H1951     1.0  0.81586  0.29806  0.74361  1.0000
  O   O733      1.0  0.82872  0.31611  0.74495  1.0000
  H   H1952     1.0  0.81620  0.33631  0.74816  1.0000
  H   H1953     1.0  0.77071  0.30225  0.81604  1.0000
  O   O734      1.0  0.79179  0.29398  0.81000  1.0000
  H   H1954     1.0  0.80179  0.30976  0.79788  1.0000
  H   H1955     1.0  0.81865  0.34158  0.87837  1.0000
  O   O735      1.0  0.81095  0.31939  0.87853  1.0000
  H   H1956     1.0  0.81794  0.30969  0.85940  1.0000
  H   H1957     1.0  0.82026  0.40328  0.10909  1.0000
  O   O736      1.0  0.81713  0.38017  0.10751  1.0000
  H   H1958     1.0  0.83292  0.37190  0.12125  1.0000
  H   H1959     1.0  0.79060  0.37651  0.17389  1.0000
  O   O737      1.0  0.81145  0.37909  0.18200  1.0000
  H   H1960     1.0  0.81156  0.40101  0.19108  1.0000
  H   H1961     1.0  0.80745  0.34991  0.26429  1.0000
  O   O738      1.0  0.81860  0.36930  0.26576  1.0000
  H   H1962     1.0  0.80370  0.38615  0.26400  1.0000
  H   H1963     1.0  0.79257  0.37577  0.73687  1.0000
  O   O739      1.0  0.79701  0.36131  0.75405  1.0000
  H   H1964     1.0  0.80017  0.37563  0.77409  1.0000
  H   H1965     1.0  0.79776  0.42114  0.80093  1.0000
  O   O740      1.0  0.80088  0.39500  0.80010  1.0000
  H   H1966     1.0  0.81279  0.38849  0.81802  1.0000
  H   H1967     1.0  0.82701  0.39157  0.88413  1.0000
  O   O741      1.0  0.83105  0.37293  0.87243  1.0000
  H   H1968     1.0  0.85164  0.37440  0.86172  1.0000
  H   H1969     1.0  0.82721  0.45395  0.10846  1.0000
  O   O742      1.0  0.82882  0.43479  0.12003  1.0000
  H   H1970     1.0  0.84631  0.43642  0.13534  1.0000
  H   H1971     1.0  0.78685  0.44064  0.19619  1.0000
  O   O743      1.0  0.81018  0.43460  0.19735  1.0000
  H   H1972     1.0  0.81942  0.44331  0.17870  1.0000
  H   H1973     1.0  0.80395  0.44375  0.32717  1.0000
  O   O744      1.0  0.81719  0.45682  0.33996  1.0000
  H   H1974     1.0  0.83261  0.46820  0.32405  1.0000
  H   H1975     1.0  0.77371  0.45775  0.79724  1.0000
  O   O745      1.0  0.79376  0.44940  0.80234  1.0000
  H   H1976     1.0  0.80619  0.46982  0.80915  1.0000
  H   H1977     1.0  0.82279  0.47062  0.87648  1.0000
  O   O746      1.0  0.81725  0.44718  0.87246  1.0000
  H   H1978     1.0  0.82843  0.44051  0.85407  1.0000
  H   H1979     1.0  0.82155  0.52452  0.11106  1.0000
  O   O747      1.0  0.82182  0.50170  0.11511  1.0000
  H   H1980     1.0  0.83402  0.49940  0.13394  1.0000
  H   H1981     1.0  0.80346  0.49791  0.19380  1.0000
  O   O748      1.0  0.82169  0.50864  0.18750  1.0000
  H   H1982     1.0  0.81939  0.53200  0.19181  1.0000
  H   H1983     1.0  0.80184  0.49246  0.24914  1.0000
  O   O749      1.0  0.82409  0.49126  0.25490  1.0000
  H   H1984     1.0  0.83694  0.49235  0.23649  1.0000
  H   H1985     1.0  0.79969  0.47304  0.72852  1.0000
  O   O750      1.0  0.81233  0.49131  0.73243  1.0000
  H   H1986     1.0  0.79912  0.50816  0.73877  1.0000
  H   H1987     1.0  0.80914  0.51693  0.81020  1.0000
  O   O751      1.0  0.81730  0.49634  0.81773  1.0000
  H   H1988     1.0  0.82552  0.49807  0.83919  1.0000
  H   H1989     1.0  0.82655  0.52648  0.87631  1.0000
  O   O752      1.0  0.83355  0.50100  0.87765  1.0000
  H   H1990     1.0  0.85280  0.50009  0.88839  1.0000
  H   H1991     1.0  0.82067  0.57881  0.10372  1.0000
  O   O753      1.0  0.81949  0.56065  0.11737  1.0000
  H   H1992     1.0  0.82975  0.56631  0.13669  1.0000
  H   H1993     1.0  0.78829  0.55761  0.19939  1.0000
  O   O754      1.0  0.81077  0.56159  0.20070  1.0000
  H   H1994     1.0  0.81411  0.58389  0.19642  1.0000
  H   H1995     1.0  0.79729  0.57169  0.32169  1.0000
  O   O755      1.0  0.81184  0.58226  0.33512  1.0000
  H   H1996     1.0  0.82878  0.59278  0.32113  1.0000
  H   H1997     1.0  0.77583  0.53964  0.79133  1.0000
  O   O756      1.0  0.79618  0.54598  0.79739  1.0000
  H   H1998     1.0  0.79584  0.56889  0.80159  1.0000
  H   H1999     1.0  0.83180  0.58192  0.87444  1.0000
  O   O757      1.0  0.82185  0.55308  0.86745  1.0000
  H   H2000     1.0  0.83516  0.55210  0.84848  1.0000
  H   H2001     1.0  0.82994  0.64845  0.11120  1.0000
  O   O758      1.0  0.82407  0.62486  0.11002  1.0000
  H   H2002     1.0  0.83697  0.61629  0.12657  1.0000
  H   H2003     1.0  0.79014  0.61534  0.17580  1.0000
  O   O759      1.0  0.81009  0.61979  0.18508  1.0000
  H   H2004     1.0  0.81007  0.64421  0.18871  1.0000
  H   H2005     1.0  0.80053  0.60856  0.26170  1.0000
  O   O760      1.0  0.81879  0.62140  0.25874  1.0000
  H   H2006     1.0  0.82047  0.62555  0.23640  1.0000
  H   H2007     1.0  0.80839  0.61123  0.72867  1.0000
  O   O761      1.0  0.82556  0.62554  0.72936  1.0000
  H   H2008     1.0  0.81936  0.64937  0.73323  1.0000
  H   H2009     1.0  0.78224  0.62087  0.79882  1.0000
  O   O762      1.0  0.79624  0.60502  0.80752  1.0000
  H   H2010     1.0  0.80512  0.61330  0.82653  1.0000
  H   H2011     1.0  0.84077  0.61616  0.89179  1.0000
  O   O763      1.0  0.84028  0.60486  0.87239  1.0000
  H   H2012     1.0  0.85887  0.61333  0.84828  1.0000
  H   H2013     1.0  0.83181  0.69940  0.11634  1.0000
  O   O764      1.0  0.83943  0.67730  0.12091  1.0000
  H   H2014     1.0  0.85329  0.67710  0.13855  1.0000
  H   H2015     1.0  0.78262  0.67804  0.19210  1.0000
  O   O765      1.0  0.80543  0.67394  0.19511  1.0000
  H   H2016     1.0  0.81513  0.69317  0.18635  1.0000
  H   H2017     1.0  0.79070  0.68422  0.74137  1.0000
  O   O766      1.0  0.81464  0.67892  0.73766  1.0000
  H   H2018     1.0  0.82554  0.68513  0.75638  1.0000
  H   H2019     1.0  0.78930  0.67993  0.82950  1.0000
  O   O767      1.0  0.80553  0.68424  0.81493  1.0000
  H   H2020     1.0  0.80716  0.70880  0.80936  1.0000
  H   H2021     1.0  0.83029  0.70762  0.88548  1.0000
  O   O768      1.0  0.82422  0.68430  0.88503  1.0000
  H   H2022     1.0  0.83662  0.67505  0.86869  1.0000
  H   H2023     1.0  0.79600  0.72418  0.10628  1.0000
  O   O769      1.0  0.81674  0.72823  0.11243  1.0000
  H   H2024     1.0  0.82019  0.75184  0.10864  1.0000
  H   H2025     1.0  0.81690  0.73962  0.20010  1.0000
  O   O770      1.0  0.82191  0.72685  0.18120  1.0000
  H   H2026     1.0  0.81438  0.73686  0.16227  1.0000
  H   H2027     1.0  0.79619  0.73697  0.24400  1.0000
  O   O771      1.0  0.81254  0.75063  0.23726  1.0000
  H   H2028     1.0  0.80508  0.77356  0.23962  1.0000
  H   H2029     1.0  0.80881  0.73657  0.29791  1.0000
  O   O772      1.0  0.82172  0.75042  0.30977  1.0000
  H   H2030     1.0  0.81463  0.77373  0.30660  1.0000
  H   H2031     1.0  0.82105  0.74693  0.34378  1.0000
  O   O773      1.0  0.82407  0.74814  0.36750  1.0000
  H   H2032     1.0  0.81092  0.76447  0.37469  1.0000
  H   H2033     1.0  0.80740  0.73954  0.42388  1.0000
  O   O774      1.0  0.81939  0.75296  0.43729  1.0000
  H   H2034     1.0  0.81666  0.77637  0.43141  1.0000
  H   H2035     1.0  0.80328  0.74432  0.50407  1.0000
  O   O775      1.0  0.82166  0.73828  0.49253  1.0000
  H   H2036     1.0  0.81866  0.74402  0.46921  1.0000
  H   H2037     1.0  0.81082  0.73538  0.61878  1.0000
  O   O776      1.0  0.82648  0.75063  0.61501  1.0000
  H   H2038     1.0  0.81919  0.77281  0.61988  1.0000
  H   H2039     1.0  0.81249  0.73959  0.72732  1.0000
  O   O777      1.0  0.82404  0.74801  0.74479  1.0000
  H   H2040     1.0  0.82121  0.77260  0.74585  1.0000
  H   H2041     1.0  0.81570  0.73947  0.77686  1.0000
  O   O778      1.0  0.81242  0.73592  0.79997  1.0000
  H   H2042     1.0  0.81383  0.75609  0.81154  1.0000
  H   H2043     1.0  0.82553  0.75742  0.88393  1.0000
  O   O779      1.0  0.84029  0.73828  0.88264  1.0000
  H   H2044     1.0  0.85841  0.74256  0.89454  1.0000
  H   H2045     1.0  0.79955  0.79339  0.10332  1.0000
  O   O780      1.0  0.81900  0.78377  0.10869  1.0000
  H   H2046     1.0  0.82342  0.78964  0.13139  1.0000
  H   H2047     1.0  0.80158  0.80517  0.17065  1.0000
  O   O781      1.0  0.82183  0.79517  0.16513  1.0000
  H   H2048     1.0  0.83750  0.80120  0.17958  1.0000
  H   H2049     1.0  0.77180  0.80613  0.23930  1.0000
  O   O782      1.0  0.79390  0.80248  0.24505  1.0000
  H   H2050     1.0  0.79975  0.81045  0.26556  1.0000
  H   H2051     1.0  0.78273  0.80630  0.30867  1.0000
  O   O783      1.0  0.80543  0.80285  0.30786  1.0000
  H   H2052     1.0  0.81297  0.81131  0.32869  1.0000
  H   H2053     1.0  0.79791  0.84042  0.36477  1.0000
  O   O784      1.0  0.81224  0.82268  0.36258  1.0000
  H   H2054     1.0  0.82074  0.81818  0.38318  1.0000
  H   H2055     1.0  0.79176  0.81465  0.42819  1.0000
  O   O785      1.0  0.81449  0.80758  0.42750  1.0000
  H   H2056     1.0  0.82360  0.81601  0.44655  1.0000
  H   H2057     1.0  0.80127  0.80360  0.49878  1.0000
  O   O786      1.0  0.81947  0.81468  0.49256  1.0000
  H   H2058     1.0  0.83639  0.80158  0.49879  1.0000
  H   H2059     1.0  0.80642  0.80502  0.56130  1.0000
  O   O787      1.0  0.82869  0.81247  0.56742  1.0000
  H   H2060     1.0  0.83425  0.83090  0.55615  1.0000
  H   H2061     1.0  0.79852  0.81631  0.62756  1.0000
  O   O788      1.0  0.81696  0.80515  0.62256  1.0000
  H   H2062     1.0  0.82448  0.81142  0.60041  1.0000
  H   H2063     1.0  0.79403  0.80395  0.68627  1.0000
  O   O789      1.0  0.81723  0.80252  0.68981  1.0000
  H   H2064     1.0  0.82837  0.80584  0.67056  1.0000
  H   H2065     1.0  0.80021  0.81126  0.75176  1.0000
  O   O790      1.0  0.81933  0.80259  0.74493  1.0000
  H   H2066     1.0  0.82133  0.80563  0.72017  1.0000
  H   H2067     1.0  0.79248  0.79610  0.81394  1.0000
  O   O791      1.0  0.81484  0.79017  0.82222  1.0000
  H   H2068     1.0  0.83023  0.80185  0.81131  1.0000
  H   H2069     1.0  0.78766  0.78905  0.88537  1.0000
  O   O792      1.0  0.80947  0.78442  0.88096  1.0000
  H   H2070     1.0  0.81282  0.78904  0.85824  1.0000
  H   H2071     1.0  0.87358  0.28788  0.16263  1.0000
  O   O793      1.0  0.86841  0.26394  0.15779  1.0000
  H   H2072     1.0  0.88541  0.25123  0.16408  1.0000
  H   H2073     1.0  0.86987  0.27575  0.23657  1.0000
  O   O794      1.0  0.87087  0.25323  0.23611  1.0000
  H   H2074     1.0  0.87604  0.24613  0.25696  1.0000
  H   H2075     1.0  0.88130  0.27118  0.31047  1.0000
  O   O795      1.0  0.87038  0.25189  0.31261  1.0000
  H   H2076     1.0  0.86697  0.24840  0.33588  1.0000
  H   H2077     1.0  0.85767  0.27818  0.36670  1.0000
  O   O796      1.0  0.85650  0.25450  0.37006  1.0000
  H   H2078     1.0  0.86951  0.24832  0.38905  1.0000
  H   H2079     1.0  0.88082  0.26801  0.42885  1.0000
  O   O797      1.0  0.88421  0.24686  0.42007  1.0000
  H   H2080     1.0  0.88067  0.23118  0.43577  1.0000
  H   H2081     1.0  0.86661  0.26777  0.49428  1.0000
  O   O798      1.0  0.85871  0.24807  0.50118  1.0000
  H   H2082     1.0  0.86384  0.24508  0.52430  1.0000
  H   H2083     1.0  0.84102  0.25799  0.55868  1.0000
  O   O799      1.0  0.85633  0.24195  0.55971  1.0000
  H   H2084     1.0  0.86461  0.24497  0.58640  1.0000
  H   H2085     1.0  0.86431  0.28119  0.61342  1.0000
  O   O800      1.0  0.86573  0.25178  0.61269  1.0000
  H   H2086     1.0  0.88018  0.24111  0.62572  1.0000
  H   H2087     1.0  0.85315  0.25888  0.68406  1.0000
  O   O801      1.0  0.85642  0.23786  0.69195  1.0000
  H   H2088     1.0  0.86899  0.24083  0.71108  1.0000
  H   H2089     1.0  0.88769  0.27795  0.74852  1.0000
  O   O802      1.0  0.88894  0.25658  0.74011  1.0000
  H   H2090     1.0  0.89678  0.24329  0.75634  1.0000
  H   H2091     1.0  0.87105  0.29464  0.83219  1.0000
  O   O803      1.0  0.86595  0.27159  0.83996  1.0000
  H   H2092     1.0  0.88509  0.26074  0.84144  1.0000
  H   H2093     1.0  0.87342  0.31629  0.19591  1.0000
  O   O804      1.0  0.87725  0.31609  0.17264  1.0000
  H   H2094     1.0  0.87201  0.33712  0.16370  1.0000
  H   H2095     1.0  0.83907  0.31741  0.22663  1.0000
  O   O805      1.0  0.86097  0.31859  0.23009  1.0000
  H   H2096     1.0  0.86754  0.34112  0.23396  1.0000
  H   H2097     1.0  0.86656  0.31521  0.27823  1.0000
  O   O806      1.0  0.87041  0.32105  0.29989  1.0000
  H   H2098     1.0  0.87122  0.34406  0.30100  1.0000
  H   H2099     1.0  0.85107  0.32957  0.36377  1.0000
  O   O807      1.0  0.85827  0.30948  0.35630  1.0000
  H   H2100     1.0  0.86275  0.31198  0.33329  1.0000
  H   H2101     1.0  0.84820  0.30532  0.43370  1.0000
  O   O808      1.0  0.87037  0.30148  0.43505  1.0000
  H   H2102     1.0  0.88082  0.31936  0.42658  1.0000
  H   H2103     1.0  0.85323  0.34721  0.50188  1.0000
  O   O809      1.0  0.86112  0.32599  0.50495  1.0000
  H   H2104     1.0  0.87178  0.32033  0.48592  1.0000
  H   H2105     1.0  0.87160  0.32495  0.54277  1.0000
  O   O810      1.0  0.87692  0.33199  0.56412  1.0000
  H   H2106     1.0  0.87525  0.35746  0.56671  1.0000
  H   H2107     1.0  0.86928  0.31931  0.58547  1.0000
  O   O811      1.0  0.86121  0.30601  0.60999  1.0000
  H   H2108     1.0  0.85492  0.31712  0.62836  1.0000
  H   H2109     1.0  0.84450  0.30946  0.70126  1.0000
  O   O812      1.0  0.85642  0.29900  0.68505  1.0000
  H   H2110     1.0  0.87670  0.30757  0.68598  1.0000
  H   H2111     1.0  0.85859  0.31472  0.75380  1.0000
  O   O813      1.0  0.88177  0.31366  0.75999  1.0000
  H   H2112     1.0  0.89222  0.32997  0.74890  1.0000
  H   H2113     1.0  0.87880  0.34262  0.82667  1.0000
  O   O814      1.0  0.87908  0.32115  0.81874  1.0000
  H   H2114     1.0  0.88138  0.31958  0.79529  1.0000
  H   H2115     1.0  0.83853  0.37329  0.16685  1.0000
  O   O815      1.0  0.85871  0.36796  0.15495  1.0000
  H   H2116     1.0  0.87155  0.38601  0.15360  1.0000
  H   H2117     1.0  0.87349  0.39240  0.23437  1.0000
  O   O816      1.0  0.88212  0.37071  0.23734  1.0000
  H   H2118     1.0  0.90333  0.37116  0.23165  1.0000
  H   H2119     1.0  0.84367  0.37644  0.28926  1.0000
  O   O817      1.0  0.85881  0.37831  0.30705  1.0000
  H   H2120     1.0  0.86953  0.39904  0.30653  1.0000
  H   H2121     1.0  0.83885  0.38768  0.36913  1.0000
  O   O818      1.0  0.83561  0.36808  0.35768  1.0000
  H   H2122     1.0  0.84555  0.37186  0.33581  1.0000
  H   H2123     1.0  0.85591  0.37447  0.42108  1.0000
  O   O819      1.0  0.86790  0.37784  0.43986  1.0000
  H   H2124     1.0  0.87510  0.39992  0.43891  1.0000
  H   H2125     1.0  0.83867  0.40193  0.49650  1.0000
  O   O820      1.0  0.83584  0.38031  0.48978  1.0000
  H   H2126     1.0  0.84667  0.37865  0.46891  1.0000
  H   H2127     1.0  0.85745  0.38650  0.59122  1.0000
  O   O821      1.0  0.87027  0.38493  0.57277  1.0000
  H   H2128     1.0  0.87430  0.40511  0.55981  1.0000
  H   H2129     1.0  0.84160  0.40235  0.63366  1.0000
  O   O822      1.0  0.84041  0.37787  0.63260  1.0000
  H   H2130     1.0  0.85459  0.37139  0.64902  1.0000
  H   H2131     1.0  0.83703  0.38683  0.69424  1.0000
  O   O823      1.0  0.85425  0.37291  0.69277  1.0000
  H   H2132     1.0  0.86618  0.37645  0.71210  1.0000
  H   H2133     1.0  0.86851  0.40718  0.75297  1.0000
  O   O824      1.0  0.87964  0.38784  0.74750  1.0000
  H   H2134     1.0  0.90050  0.39095  0.75383  1.0000
  H   H2135     1.0  0.87590  0.39966  0.83155  1.0000
  O   O825      1.0  0.87975  0.37787  0.84253  1.0000
  H   H2136     1.0  0.89865  0.37888  0.85400  1.0000
  H   H2137     1.0  0.87198  0.43321  0.18107  1.0000
  O   O826      1.0  0.87038  0.44197  0.16010  1.0000
  H   H2138     1.0  0.87576  0.46468  0.16177  1.0000
  H   H2139     1.0  0.84158  0.42836  0.22276  1.0000
  O   O827      1.0  0.86331  0.42494  0.22741  1.0000
  H   H2140     1.0  0.87278  0.44559  0.23142  1.0000
  H   H2141     1.0  0.87189  0.45146  0.30491  1.0000
  O   O828      1.0  0.88413  0.43204  0.30994  1.0000
  H   H2142     1.0  0.90415  0.43392  0.30101  1.0000
  H   H2143     1.0  0.83716  0.43776  0.36441  1.0000
  O   O829      1.0  0.85169  0.42478  0.37726  1.0000
  H   H2144     1.0  0.87107  0.42626  0.36641  1.0000
  H   H2145     1.0  0.85671  0.43351  0.41904  1.0000
  O   O830      1.0  0.87020  0.43686  0.43717  1.0000
  H   H2146     1.0  0.88028  0.45815  0.43136  1.0000
  H   H2147     1.0  0.84591  0.46066  0.49612  1.0000
  O   O831      1.0  0.85405  0.43976  0.49247  1.0000
  H   H2148     1.0  0.86054  0.43836  0.46920  1.0000
  H   H2149     1.0  0.87034  0.43304  0.52032  1.0000
  O   O832      1.0  0.87962  0.43013  0.54244  1.0000
  H   H2150     1.0  0.88339  0.45020  0.55157  1.0000
  H   H2151     1.0  0.84895  0.44557  0.61941  1.0000
  O   O833      1.0  0.84728  0.43239  0.63750  1.0000
  H   H2152     1.0  0.86018  0.44056  0.65673  1.0000
  H   H2153     1.0  0.87613  0.43862  0.70062  1.0000
  O   O834      1.0  0.87496  0.45180  0.68249  1.0000
  H   H2154     1.0  0.86857  0.47468  0.68831  1.0000
  H   H2155     1.0  0.83007  0.44047  0.75651  1.0000
  O   O835      1.0  0.85192  0.43979  0.76001  1.0000
  H   H2156     1.0  0.85923  0.46161  0.75940  1.0000
  H   H2157     1.0  0.85937  0.42836  0.79863  1.0000
  O   O836      1.0  0.86802  0.42734  0.81989  1.0000
  H   H2158     1.0  0.87689  0.44887  0.82374  1.0000
  H   H2159     1.0  0.85118  0.50056  0.17858  1.0000
  O   O837      1.0  0.87365  0.49793  0.17225  1.0000
  H   H2160     1.0  0.88070  0.51947  0.16713  1.0000
  H   H2161     1.0  0.89234  0.49711  0.24133  1.0000
  O   O838      1.0  0.88427  0.48149  0.22756  1.0000
  H   H2162     1.0  0.88348  0.48961  0.20531  1.0000
  H   H2163     1.0  0.83884  0.48219  0.28155  1.0000
  O   O839      1.0  0.85178  0.47934  0.30231  1.0000
  H   H2164     1.0  0.86133  0.50102  0.30417  1.0000
  H   H2165     1.0  0.86021  0.53312  0.37243  1.0000
  O   O840      1.0  0.86353  0.50960  0.37299  1.0000
  H   H2166     1.0  0.87288  0.50294  0.35367  1.0000
  H   H2167     1.0  0.87640  0.49597  0.40047  1.0000
  O   O841      1.0  0.88667  0.48679  0.42014  1.0000
  H   H2168     1.0  0.89317  0.50338  0.43366  1.0000
  H   H2169     1.0  0.84313  0.51946  0.49853  1.0000
  O   O842      1.0  0.83786  0.49892  0.50986  1.0000
  H   H2170     1.0  0.84854  0.49822  0.53040  1.0000
  H   H2171     1.0  0.85547  0.49786  0.58350  1.0000
  O   O843      1.0  0.86573  0.49892  0.56309  1.0000
  H   H2172     1.0  0.87874  0.51717  0.56405  1.0000
  H   H2173     1.0  0.84556  0.53197  0.62446  1.0000
  O   O844      1.0  0.84258  0.50883  0.62983  1.0000
  H   H2174     1.0  0.85440  0.50464  0.64876  1.0000
  H   H2175     1.0  0.83913  0.50009  0.70854  1.0000
  O   O845      1.0  0.85601  0.50219  0.69317  1.0000
  H   H2176     1.0  0.86274  0.52471  0.68994  1.0000
  H   H2177     1.0  0.86885  0.51824  0.76379  1.0000
  O   O846      1.0  0.87741  0.49653  0.76239  1.0000
  H   H2178     1.0  0.89262  0.49725  0.74596  1.0000
  H   H2179     1.0  0.88519  0.48743  0.79737  1.0000
  O   O847      1.0  0.88657  0.48157  0.81999  1.0000
  H   H2180     1.0  0.88035  0.49967  0.83182  1.0000
  H   H2181     1.0  0.88986  0.55723  0.19428  1.0000
  O   O848      1.0  0.88417  0.55585  0.17246  1.0000
  H   H2182     1.0  0.87611  0.57715  0.16646  1.0000
  H   H2183     1.0  0.84365  0.55439  0.23693  1.0000
  O   O849      1.0  0.86334  0.55575  0.24734  1.0000
  H   H2184     1.0  0.87137  0.57710  0.24397  1.0000
  H   H2185     1.0  0.86855  0.54233  0.27842  1.0000
  O   O850      1.0  0.87263  0.53317  0.30009  1.0000
  H   H2186     1.0  0.87131  0.54966  0.31526  1.0000
  H   H2187     1.0  0.83243  0.56875  0.36029  1.0000
  O   O851      1.0  0.85187  0.56558  0.37246  1.0000
  H   H2188     1.0  0.86172  0.58622  0.37119  1.0000
  H   H2189     1.0  0.86174  0.56127  0.41501  1.0000
  O   O852      1.0  0.87263  0.56315  0.43493  1.0000
  H   H2190     1.0  0.87470  0.58607  0.43964  1.0000
  H   H2191     1.0  0.83188  0.56400  0.48603  1.0000
  O   O853      1.0  0.84924  0.55038  0.48523  1.0000
  H   H2192     1.0  0.85963  0.55370  0.46351  1.0000
  H   H2193     1.0  0.86563  0.55723  0.53924  1.0000
  O   O854      1.0  0.87425  0.56471  0.55883  1.0000
  H   H2194     1.0  0.87388  0.58787  0.55665  1.0000
  H   H2195     1.0  0.84783  0.58396  0.62241  1.0000
  O   O855      1.0  0.85648  0.56301  0.61733  1.0000
  H   H2196     1.0  0.86354  0.56285  0.59504  1.0000
  H   H2197     1.0  0.87101  0.55669  0.65574  1.0000
  O   O856      1.0  0.87085  0.55434  0.67864  1.0000
  H   H2198     1.0  0.86901  0.57562  0.68734  1.0000
  H   H2199     1.0  0.83647  0.55237  0.76893  1.0000
  O   O857      1.0  0.85864  0.55313  0.77000  1.0000
  H   H2200     1.0  0.86550  0.57566  0.76565  1.0000
  H   H2201     1.0  0.86434  0.55134  0.80586  1.0000
  O   O858      1.0  0.86587  0.55055  0.82935  1.0000
  H   H2202     1.0  0.88039  0.56597  0.83610  1.0000
  H   H2203     1.0  0.84040  0.61332  0.17175  1.0000
  O   O859      1.0  0.86117  0.60975  0.16226  1.0000
  H   H2204     1.0  0.87215  0.62980  0.16438  1.0000
  H   H2205     1.0  0.87506  0.63066  0.23885  1.0000
  O   O860      1.0  0.88420  0.61034  0.23493  1.0000
  H   H2206     1.0  0.89924  0.61350  0.21864  1.0000
  H   H2207     1.0  0.84095  0.61590  0.28453  1.0000
  O   O861      1.0  0.84958  0.60751  0.30481  1.0000
  H   H2208     1.0  0.86309  0.62121  0.31620  1.0000
  H   H2209     1.0  0.85443  0.64331  0.36294  1.0000
  O   O862      1.0  0.86826  0.62471  0.36517  1.0000
  H   H2210     1.0  0.88644  0.63129  0.37590  1.0000
  H   H2211     1.0  0.85615  0.61898  0.47081  1.0000
  O   O863      1.0  0.87030  0.61748  0.45264  1.0000
  H   H2212     1.0  0.87817  0.63811  0.44854  1.0000
  H   H2213     1.0  0.83902  0.65301  0.49865  1.0000
  O   O864      1.0  0.83464  0.62954  0.50103  1.0000
  H   H2214     1.0  0.84459  0.62309  0.52124  1.0000
  H   H2215     1.0  0.84582  0.62310  0.57153  1.0000
  O   O865      1.0  0.86099  0.62231  0.55510  1.0000
  H   H2216     1.0  0.86978  0.64471  0.55282  1.0000
  H   H2217     1.0  0.84646  0.63996  0.63195  1.0000
  O   O866      1.0  0.84023  0.61721  0.63746  1.0000
  H   H2218     1.0  0.85065  0.61380  0.65842  1.0000
  H   H2219     1.0  0.84676  0.61846  0.70674  1.0000
  O   O867      1.0  0.86351  0.61240  0.69023  1.0000
  H   H2220     1.0  0.88107  0.62540  0.69368  1.0000
  H   H2221     1.0  0.84868  0.61600  0.75385  1.0000
  O   O868      1.0  0.86793  0.60963  0.76507  1.0000
  H   H2222     1.0  0.88238  0.62597  0.75889  1.0000
  H   H2223     1.0  0.86885  0.61361  0.80899  1.0000
  O   O869      1.0  0.87257  0.62217  0.82992  1.0000
  H   H2224     1.0  0.86639  0.65111  0.82842  1.0000
  H   H2225     1.0  0.87100  0.66643  0.19894  1.0000
  O   O870      1.0  0.87967  0.66432  0.17748  1.0000
  H   H2226     1.0  0.88781  0.68513  0.17313  1.0000
  H   H2227     1.0  0.83495  0.67402  0.22581  1.0000
  O   O871      1.0  0.85630  0.67405  0.23255  1.0000
  H   H2228     1.0  0.86180  0.69671  0.23614  1.0000
  H   H2229     1.0  0.85558  0.67508  0.28391  1.0000
  O   O872      1.0  0.86087  0.68110  0.30510  1.0000
  H   H2230     1.0  0.87061  0.70365  0.30572  1.0000
  H   H2231     1.0  0.82986  0.68814  0.36370  1.0000
  O   O873      1.0  0.83342  0.66916  0.35232  1.0000
  H   H2232     1.0  0.84438  0.67464  0.33003  1.0000
  H   H2233     1.0  0.85172  0.67565  0.42832  1.0000
  O   O874      1.0  0.86798  0.68150  0.44242  1.0000
  H   H2234     1.0  0.87421  0.70521  0.43794  1.0000
  H   H2235     1.0  0.83426  0.70314  0.49590  1.0000
  O   O875      1.0  0.84723  0.68408  0.49495  1.0000
  H   H2236     1.0  0.85741  0.68304  0.47241  1.0000
  H   H2237     1.0  0.86494  0.68122  0.52343  1.0000
  O   O876      1.0  0.87513  0.67495  0.54416  1.0000
  H   H2238     1.0  0.88132  0.69269  0.55614  1.0000
  H   H2239     1.0  0.85082  0.68759  0.62130  1.0000
  O   O877      1.0  0.85039  0.67082  0.63603  1.0000
  H   H2240     1.0  0.85482  0.67804  0.65896  1.0000
  H   H2241     1.0  0.83932  0.68536  0.70171  1.0000
  O   O878      1.0  0.85863  0.68648  0.69028  1.0000
  H   H2242     1.0  0.86601  0.70988  0.69153  1.0000
  H   H2243     1.0  0.87883  0.67226  0.72208  1.0000
  O   O879      1.0  0.88654  0.66432  0.74239  1.0000
  H   H2244     1.0  0.88999  0.68225  0.75554  1.0000
  H   H2245     1.0  0.83256  0.67680  0.82159  1.0000
  O   O880      1.0  0.85648  0.67404  0.82757  1.0000
  H   H2246     1.0  0.86869  0.69431  0.82385  1.0000
  H   H2247     1.0  0.86223  0.72836  0.17407  1.0000
  O   O881      1.0  0.88419  0.72589  0.17769  1.0000
  H   H2248     1.0  0.88610  0.73045  0.20007  1.0000
  H   H2249     1.0  0.84442  0.74054  0.24034  1.0000
  O   O882      1.0  0.86573  0.73088  0.24025  1.0000
  H   H2250     1.0  0.87650  0.73697  0.25919  1.0000
  H   H2251     1.0  0.85604  0.74257  0.30637  1.0000
  O   O883      1.0  0.87714  0.73350  0.30756  1.0000
  H   H2252     1.0  0.88425  0.73909  0.32955  1.0000
  H   H2253     1.0  0.85837  0.74887  0.36874  1.0000
  O   O884      1.0  0.88076  0.74643  0.36404  1.0000
  H   H2254     1.0  0.89193  0.74452  0.38344  1.0000
  H   H2255     1.0  0.85627  0.74413  0.43359  1.0000
  O   O885      1.0  0.87712  0.73580  0.43730  1.0000
  H   H2256     1.0  0.88248  0.74261  0.45953  1.0000
  H   H2257     1.0  0.85495  0.74674  0.49690  1.0000
  O   O886      1.0  0.87721  0.75074  0.49276  1.0000
  H   H2258     1.0  0.88796  0.74909  0.51242  1.0000
  H   H2259     1.0  0.84602  0.74730  0.57605  1.0000
  O   O887      1.0  0.86060  0.75497  0.56049  1.0000
  H   H2260     1.0  0.85509  0.77677  0.55912  1.0000
  H   H2261     1.0  0.85554  0.74845  0.62719  1.0000
  O   O888      1.0  0.87729  0.74823  0.63688  1.0000
  H   H2262     1.0  0.89247  0.75428  0.62186  1.0000
  H   H2263     1.0  0.85967  0.75416  0.69899  1.0000
  O   O889      1.0  0.87473  0.73961  0.69159  1.0000
  H   H2264     1.0  0.87876  0.74452  0.66770  1.0000
  H   H2265     1.0  0.85611  0.73903  0.75218  1.0000
  O   O890      1.0  0.87724  0.73335  0.75992  1.0000
  H   H2266     1.0  0.89185  0.73948  0.74417  1.0000
  H   H2267     1.0  0.86902  0.73905  0.82942  1.0000
  O   O891      1.0  0.87965  0.72355  0.81733  1.0000
  H   H2268     1.0  0.88026  0.72933  0.79412  1.0000
