data_image0
_chemical_formula_structural       I240Pb64C81N81H487OH2OH2OH2OH2OH2OH2OH2OH2OH2OH2OH2OH2OH2OH2OH2OH2OH2OH2OH2OH2OH2OH2OH2OH2OH2OH2OH2OH2OH2OH2OH2OH2OH2OH2OH2OH2OH2OH2OH2OH2OH2OH2OH2OH2OH2OH2OH2OH2OH2OH2OH2OH2OH2OH2OH2OH2OH2OH2OH2OH2OH2OH2OH2OH2OH2OH2OH2OH2OH2OH2OH2OH2OH2OH2OH2OH2OH2OH2OH2OH2OH2OH2OH2OH2OH2OH2OH2OH2OH2OH2OH2OH2OH2OH2OH2OH2OH2OH2OH2OH2OH2OH2OH2OH2OH2OH2OH2OH2OH2OH2OH2OH2OH2OH2OH2OH2OH2OH2OH2OH2OH2OH2OH2OH2OH2OH2OH2OH2OH2OH2OH2OH2OH2OH2OH2OH2OH2OH2OH2OH2OH2OH2OH2OH2OH2OH2OH2OH2OH2OH2OH2OH2OH2OH2OH2OH2OH2OH2OH2OH2OH2OH2OH2OH2OH2OH2OH2OH2OH2OH2OH2OH2OH2OH2OH2OH2OH2OH2OH2OH2OH2OH2OH2OH2OH2OH2OH2OH2OH2OH2OH2OH2OH2OH2OH2OH2OH2OH2OH2OH2OH2OH2OH2OH2OH2OH2OH2OH2OH2OH2OH2OH2OH2OH2OH2OH2OH2OH2OH2OH2OH2OH2OH2OH2OH2OH2OH2OH2OH2OH2OH2OH2OH2OH2OH2OH2OH2OH2OH2OH2OH2OH2OH2OH2OH2OH2OH2OH2OH2OH2OH2OH2OH2OH2OH2OH2OH2OH2OH2OH2OH2OH2OH2OH2OH2OH2OH2OH2OH2OH2OH2OH2OH2OH2OH2OH2OH2OH2OH2OH2OH2OH2OH2OH2OH2OH2OH2OH2OH2OH2OH2OH2OH2OH2OH2OH2OH2OH2OH2OH2OH2OH2OH2OH2OH2OH2OH2OH2OH2OH2OH2OH2OH2OH2OH2OH2OH2OH2OH2OH2OH2OH2OH2OH2OH2OH2OH2OH2OH2OH2OH2OH2OH2OH2OH2OH2OH2OH2OH2OH2OH2OH2OH2OH2OH2OH2OH2OH2OH2OH2OH2OH2OH2OH2OH2OH2OH2OH2OH2OH2OH2OH2OH2OH2OH2OH2OH2OH2OH2OH2OH2OH2OH2OH2OH2OH2OH2OH2OH2OH2OH2OH2OH2OH2OH2OH2OH2OH2OH2OH2OH2OH2OH2OH2OH2OH2OH2OH2OH2OH2OH2OH2OH2OH2OH2OH2OH2OH2OH2OH2OH2OH2OH2OH2OH2OH2OH2OH2OH2OH2OH2OH2OH2OH2OH2OH2OH2OH2OH2OH2OH2OH2OH2OH2OH2OH2OH2OH2OH2OH2OH2OH2OH2OH2OH2OH2OH2OH2OH2OH2OH2OH2OH2OH2OH2OH2OH2OH2OH2OH2OH2OH2OH2OH2OH2OH2OH2OH2OH2OH2OH2OH2OH2OH2OH2OH2OH2OH2OH2OH2OH2OH2OH2OH2OH2OH2OH2OH2OH2OH2OH2OH2OH2OH2OH2OH2OH2OH2OH2OH2OH2OH2OH2OH2OH2OH2OH2OH2OH2OH2OH2OH2OH2OH2OH2OH2OH2OH2OH2OH2OH2OH2OH2OH2OH2OH2OH2OH2OH2OH2OH2OH2OH2OH2OH2OH2OH2OH2OH2OH2OH2OH2OH2OH2OH2OH2OH2OH2OH2OH2OH2OH2OH2OH2OH2OH2OH2OH2OH2OH2OH2OH2OH2OH2OH2OH2OH2OH2OH2OH2OH2OH2OH2OH2OH2OH2OH2OH2OH2OH2OH2OH2OH2OH2OH2OH2OH2OH2OH2OH2OH2OH2OH2OH2OH2OH2OH2OH2OH2OH2OH2OH2OH2OH2OH2OH2OH2OH2OH2OH2OH2OH2OH2OH2OH2OH2OH2OH2OH2OH2OH2OH2OH2OH2OH2OH2OH2OH2OH2OH2OH2OH2OH2OH2OH2OH2OH2OH2OH2OH2OH2OH2OH2OH2OH2OH2OH2OH2OH2OH2OH2OH2OH2OH2OH2OH2OH2OH2OH2OH2OH2OH2OH2OH2OH2OH2OH2OH2OH2OH2OH2OH2OH2OH2OH2OH2OH2OH2OH2OH2OH2OH2OH2OH2OH2OH2OH2OH2OH2OH2OH2OH2OH2OH2OH2OH2OH2OH2OH2OH2OH2OH2OH2OH2OH2OH2OH2OH2OH2OH2OH2OH2OH2OH2OH2OH2OH2OH2OH2OH2OH2OH2OH2OH2OH2OH2OH2OH2OH2OH2OH2OH2OH2OH2OH2OH2OH2OH2OH2OH2OH2OH2OH2OH2OH2OH2OH2OH2OH2OH2OH2OH2OH2OH2OH2OH2OH2OH2OH2OH2OH2OH2OH2OH2OH2OH2OH2OH2OH2OH2OH2OH2OH2OH2OH2OH2OH2OH2OH2OH2OH2OH2OH2OH2OH2OH2OH2OH2OH2OH2OH2OH2OH2OH2OH2OH2OH2OH2OH2OH2OH2OH2OH2OH2OH2OH2OH2OH2OH2OH2OH2OH2OH2OH2OH2OH2OH2OH2OH2OH2OH2OH2OH2OH2OH2OH2OH2OH2OH2OH2OH2OH2OH2OH2OH2OH2OH2OH2OH2OH2OH2OH2OH2OH2OH2OH2OH2OH2OH2OH2OH2OH2OH2OH2OH2OH2OH2OH2OH2OH2OH2OH2OH2OH2OH2OH2OH2OH2OH2OH2OH2OH2OH2OH2OH2OH2OH2OH2OH2OH2OH2OH2OH2OH2OH2OH2OH2OH2OH2OH2OH
_chemical_formula_sum              "I240 Pb64 C81 N81 H2268 O891"
_cell_length_a       45.64
_cell_length_b       44.94
_cell_length_c       44.24
_cell_angle_alpha    90
_cell_angle_beta     90
_cell_angle_gamma    90

_space_group_name_H-M_alt    "P 1"
_space_group_IT_number       1

loop_
  _space_group_symop_operation_xyz
  'x, y, z'

loop_
  _atom_site_type_symbol
  _atom_site_label
  _atom_site_symmetry_multiplicity
  _atom_site_fract_x
  _atom_site_fract_y
  _atom_site_fract_z
  _atom_site_occupancy
  I   I1        1.0  0.27156  0.28387  0.20549  1.0000
  I   I2        1.0  0.41938  0.29750  0.20384  1.0000
  I   I3        1.0  0.54995  0.28484  0.20857  1.0000
  I   I4        1.0  0.67979  0.29803  0.20459  1.0000
  I   I5        1.0  0.28434  0.42883  0.20285  1.0000
  I   I6        1.0  0.41009  0.42455  0.20252  1.0000
  I   I7        1.0  0.55083  0.42504  0.20586  1.0000
  I   I8        1.0  0.67638  0.42875  0.20685  1.0000
  I   I9        1.0  0.28088  0.56695  0.20722  1.0000
  I   I10       1.0  0.40617  0.56586  0.20344  1.0000
  I   I11       1.0  0.54865  0.56325  0.20414  1.0000
  I   I12       1.0  0.67499  0.56505  0.20821  1.0000
  I   I13       1.0  0.26649  0.70874  0.20902  1.0000
  I   I14       1.0  0.42586  0.70735  0.20765  1.0000
  I   I15       1.0  0.54684  0.70631  0.20694  1.0000
  I   I16       1.0  0.67361  0.70145  0.20571  1.0000
  I   I17       1.0  0.27851  0.20529  0.28110  1.0000
  I   I18       1.0  0.40793  0.21199  0.29657  1.0000
  I   I19       1.0  0.54320  0.20965  0.29051  1.0000
  I   I20       1.0  0.69074  0.21880  0.27807  1.0000
  I   I21       1.0  0.21166  0.25669  0.28186  1.0000
  I   I22       1.0  0.27412  0.28528  0.35257  1.0000
  I   I23       1.0  0.25769  0.35423  0.27432  1.0000
  I   I24       1.0  0.34463  0.28155  0.26799  1.0000
  I   I25       1.0  0.40641  0.26037  0.35060  1.0000
  I   I26       1.0  0.40370  0.35250  0.29131  1.0000
  I   I27       1.0  0.48251  0.28952  0.28445  1.0000
  I   I28       1.0  0.55424  0.28508  0.35663  1.0000
  I   I29       1.0  0.56351  0.35367  0.28041  1.0000
  I   I30       1.0  0.62092  0.27856  0.28265  1.0000
  I   I31       1.0  0.68326  0.28781  0.35584  1.0000
  I   I32       1.0  0.67642  0.35860  0.28783  1.0000
  I   I33       1.0  0.76073  0.30562  0.27818  1.0000
  I   I34       1.0  0.19435  0.42546  0.30155  1.0000
  I   I35       1.0  0.27208  0.42125  0.34969  1.0000
  I   I36       1.0  0.26001  0.49194  0.27648  1.0000
  I   I37       1.0  0.34688  0.43130  0.27873  1.0000
  I   I38       1.0  0.41233  0.42344  0.35040  1.0000
  I   I39       1.0  0.42990  0.49381  0.27810  1.0000
  I   I40       1.0  0.48550  0.40588  0.27621  1.0000
  I   I41       1.0  0.54935  0.42208  0.35283  1.0000
  I   I42       1.0  0.54097  0.49409  0.28450  1.0000
  I   I43       1.0  0.62372  0.43883  0.28529  1.0000
  I   I44       1.0  0.69263  0.42632  0.35298  1.0000
  I   I45       1.0  0.69923  0.49671  0.28356  1.0000
  I   I46       1.0  0.76908  0.42599  0.28387  1.0000
  I   I47       1.0  0.20446  0.56755  0.28070  1.0000
  I   I48       1.0  0.27362  0.56239  0.35284  1.0000
  I   I49       1.0  0.27977  0.63716  0.28393  1.0000
  I   I50       1.0  0.34577  0.54735  0.28023  1.0000
  I   I51       1.0  0.41307  0.56292  0.35141  1.0000
  I   I52       1.0  0.39780  0.63648  0.27992  1.0000
  I   I53       1.0  0.48348  0.57909  0.27628  1.0000
  I   I54       1.0  0.54754  0.56359  0.35214  1.0000
  I   I55       1.0  0.56616  0.63614  0.27830  1.0000
  I   I56       1.0  0.62214  0.55304  0.28872  1.0000
  I   I57       1.0  0.69459  0.56778  0.35391  1.0000
  I   I58       1.0  0.68339  0.63837  0.28328  1.0000
  I   I59       1.0  0.76379  0.56958  0.27524  1.0000
  I   I60       1.0  0.20255  0.71027  0.28619  1.0000
  I   I61       1.0  0.26950  0.70717  0.35744  1.0000
  I   I62       1.0  0.26882  0.78502  0.28627  1.0000
  I   I63       1.0  0.34563  0.72247  0.26786  1.0000
  I   I64       1.0  0.41213  0.70084  0.35394  1.0000
  I   I65       1.0  0.42127  0.78195  0.29424  1.0000
  I   I66       1.0  0.48344  0.69382  0.28477  1.0000
  I   I67       1.0  0.55156  0.70219  0.35470  1.0000
  I   I68       1.0  0.54160  0.78722  0.29022  1.0000
  I   I69       1.0  0.61884  0.71512  0.28426  1.0000
  I   I70       1.0  0.68645  0.69985  0.35418  1.0000
  I   I71       1.0  0.67946  0.78615  0.29022  1.0000
  I   I72       1.0  0.76042  0.70357  0.27742  1.0000
  I   I73       1.0  0.28162  0.21251  0.43498  1.0000
  I   I74       1.0  0.41145  0.20510  0.43590  1.0000
  I   I75       1.0  0.55501  0.20761  0.43200  1.0000
  I   I76       1.0  0.68415  0.21611  0.42928  1.0000
  I   I77       1.0  0.20917  0.29455  0.42716  1.0000
  I   I78       1.0  0.28098  0.28639  0.49791  1.0000
  I   I79       1.0  0.28657  0.35436  0.42750  1.0000
  I   I80       1.0  0.34788  0.28103  0.41894  1.0000
  I   I81       1.0  0.41923  0.28507  0.49725  1.0000
  I   I82       1.0  0.41349  0.35089  0.42714  1.0000
  I   I83       1.0  0.48532  0.28049  0.41646  1.0000
  I   I84       1.0  0.54319  0.28028  0.50057  1.0000
  I   I85       1.0  0.55498  0.35145  0.43188  1.0000
  I   I86       1.0  0.62555  0.28453  0.43516  1.0000
  I   I87       1.0  0.69781  0.28819  0.50288  1.0000
  I   I88       1.0  0.69884  0.35198  0.42758  1.0000
  I   I89       1.0  0.79420  0.31327  0.43345  1.0000
  I   I90       1.0  0.20232  0.41606  0.41870  1.0000
  I   I91       1.0  0.27856  0.42264  0.49790  1.0000
  I   I92       1.0  0.26669  0.49535  0.43007  1.0000
  I   I93       1.0  0.34560  0.43274  0.41881  1.0000
  I   I94       1.0  0.41531  0.42278  0.49671  1.0000
  I   I95       1.0  0.42500  0.49445  0.42677  1.0000
  I   I96       1.0  0.48676  0.41782  0.42244  1.0000
  I   I97       1.0  0.55561  0.42306  0.49805  1.0000
  I   I98       1.0  0.55184  0.49403  0.42973  1.0000
  I   I99       1.0  0.62914  0.42368  0.42222  1.0000
  I   I100      1.0  0.69687  0.42523  0.49756  1.0000
  I   I101      1.0  0.70237  0.49451  0.42466  1.0000
  I   I102      1.0  0.77777  0.42329  0.42259  1.0000
  I   I103      1.0  0.20355  0.57444  0.42035  1.0000
  I   I104      1.0  0.27727  0.56318  0.49858  1.0000
  I   I105      1.0  0.28231  0.63875  0.42972  1.0000
  I   I106      1.0  0.34640  0.55725  0.42104  1.0000
  I   I107      1.0  0.41351  0.56248  0.49786  1.0000
  I   I108      1.0  0.41067  0.63792  0.43111  1.0000
  I   I109      1.0  0.48728  0.57510  0.42443  1.0000
  I   I110      1.0  0.55619  0.56399  0.49769  1.0000
  I   I111      1.0  0.56443  0.63786  0.42617  1.0000
  I   I112      1.0  0.62878  0.55932  0.42065  1.0000
  I   I113      1.0  0.69335  0.56013  0.49744  1.0000
  I   I114      1.0  0.68925  0.63675  0.43440  1.0000
  I   I115      1.0  0.77759  0.56261  0.42193  1.0000
  I   I116      1.0  0.20407  0.70419  0.43262  1.0000
  I   I117      1.0  0.28594  0.70054  0.50037  1.0000
  I   I118      1.0  0.27375  0.79261  0.43596  1.0000
  I   I119      1.0  0.34504  0.71386  0.42287  1.0000
  I   I120      1.0  0.41520  0.70268  0.49993  1.0000
  I   I121      1.0  0.40723  0.78699  0.43035  1.0000
  I   I122      1.0  0.48666  0.71006  0.42676  1.0000
  I   I123      1.0  0.55323  0.70048  0.49915  1.0000
  I   I124      1.0  0.55150  0.78540  0.43299  1.0000
  I   I125      1.0  0.63119  0.72125  0.42881  1.0000
  I   I126      1.0  0.70674  0.71343  0.49634  1.0000
  I   I127      1.0  0.67172  0.81912  0.46472  1.0000
  I   I128      1.0  0.78074  0.68001  0.43048  1.0000
  I   I129      1.0  0.29495  0.20476  0.56420  1.0000
  I   I130      1.0  0.41248  0.20677  0.57627  1.0000
  I   I131      1.0  0.56373  0.20845  0.57421  1.0000
  I   I132      1.0  0.67839  0.20937  0.57654  1.0000
  I   I133      1.0  0.21347  0.29207  0.56794  1.0000
  I   I134      1.0  0.27963  0.27663  0.64282  1.0000
  I   I135      1.0  0.28255  0.35064  0.57728  1.0000
  I   I136      1.0  0.35274  0.28885  0.56445  1.0000
  I   I137      1.0  0.41347  0.28497  0.64345  1.0000
  I   I138      1.0  0.42870  0.35191  0.57082  1.0000
  I   I139      1.0  0.49091  0.27387  0.57814  1.0000
  I   I140      1.0  0.56604  0.28855  0.64234  1.0000
  I   I141      1.0  0.55368  0.35293  0.57355  1.0000
  I   I142      1.0  0.62795  0.28890  0.55726  1.0000
  I   I143      1.0  0.68788  0.28980  0.64241  1.0000
  I   I144      1.0  0.70201  0.35227  0.57407  1.0000
  I   I145      1.0  0.78430  0.29548  0.56342  1.0000
  I   I146      1.0  0.21437  0.42361  0.57403  1.0000
  I   I147      1.0  0.28377  0.42257  0.64513  1.0000
  I   I148      1.0  0.28368  0.49353  0.57506  1.0000
  I   I149      1.0  0.35384  0.41940  0.56708  1.0000
  I   I150      1.0  0.42086  0.42278  0.64336  1.0000
  I   I151      1.0  0.41615  0.49471  0.57488  1.0000
  I   I152      1.0  0.49269  0.43238  0.56730  1.0000
  I   I153      1.0  0.55929  0.42454  0.64363  1.0000
  I   I154      1.0  0.56859  0.49450  0.57036  1.0000
  I   I155      1.0  0.63374  0.41981  0.56786  1.0000
  I   I156      1.0  0.70188  0.42711  0.64335  1.0000
  I   I157      1.0  0.70507  0.49410  0.56921  1.0000
  I   I158      1.0  0.78217  0.42271  0.56791  1.0000
  I   I159      1.0  0.20351  0.56148  0.56546  1.0000
  I   I160      1.0  0.27448  0.56197  0.64468  1.0000
  I   I161      1.0  0.27333  0.63716  0.57849  1.0000
  I   I162      1.0  0.34861  0.57084  0.56899  1.0000
  I   I163      1.0  0.42151  0.56456  0.64394  1.0000
  I   I164      1.0  0.42326  0.63847  0.57246  1.0000
  I   I165      1.0  0.49150  0.56168  0.56598  1.0000
  I   I166      1.0  0.55876  0.56211  0.64365  1.0000
  I   I167      1.0  0.55738  0.63708  0.57409  1.0000
  I   I168      1.0  0.63453  0.57048  0.56911  1.0000
  I   I169      1.0  0.70039  0.55939  0.64251  1.0000
  I   I170      1.0  0.70755  0.63798  0.56236  1.0000
  I   I171      1.0  0.78144  0.56107  0.56402  1.0000
  I   I172      1.0  0.20820  0.71046  0.55592  1.0000
  I   I173      1.0  0.26032  0.71327  0.64100  1.0000
  I   I174      1.0  0.27876  0.78327  0.56542  1.0000
  I   I175      1.0  0.34772  0.70681  0.57899  1.0000
  I   I176      1.0  0.42176  0.70124  0.64482  1.0000
  I   I177      1.0  0.40081  0.79458  0.57368  1.0000
  I   I178      1.0  0.48903  0.71432  0.57150  1.0000
  I   I179      1.0  0.56288  0.70026  0.64417  1.0000
  I   I180      1.0  0.55103  0.78541  0.57265  1.0000
  I   I181      1.0  0.63263  0.70831  0.56461  1.0000
  I   I182      1.0  0.69377  0.69493  0.63888  1.0000
  I   I183      1.0  0.66950  0.81128  0.57376  1.0000
  I   I184      1.0  0.78679  0.69066  0.57498  1.0000
  I   I185      1.0  0.28611  0.21718  0.72534  1.0000
  I   I186      1.0  0.42323  0.21886  0.72013  1.0000
  I   I187      1.0  0.56456  0.21320  0.70569  1.0000
  I   I188      1.0  0.68343  0.21457  0.71755  1.0000
  I   I189      1.0  0.21426  0.29430  0.70873  1.0000
  I   I190      1.0  0.28188  0.29378  0.79298  1.0000
  I   I191      1.0  0.27942  0.36090  0.72467  1.0000
  I   I192      1.0  0.35142  0.29459  0.70984  1.0000
  I   I193      1.0  0.44147  0.29741  0.79123  1.0000
  I   I194      1.0  0.41934  0.35904  0.71945  1.0000
  I   I195      1.0  0.49154  0.29071  0.70059  1.0000
  I   I196      1.0  0.55418  0.28266  0.79130  1.0000
  I   I197      1.0  0.56214  0.35582  0.71721  1.0000
  I   I198      1.0  0.62963  0.29352  0.71208  1.0000
  I   I199      1.0  0.67968  0.29385  0.78889  1.0000
  I   I200      1.0  0.70621  0.35444  0.71223  1.0000
  I   I201      1.0  0.77518  0.27549  0.68398  1.0000
  I   I202      1.0  0.21185  0.43155  0.70494  1.0000
  I   I203      1.0  0.28912  0.43462  0.79327  1.0000
  I   I204      1.0  0.26753  0.50059  0.72525  1.0000
  I   I205      1.0  0.35553  0.43340  0.71220  1.0000
  I   I206      1.0  0.42978  0.42849  0.79567  1.0000
  I   I207      1.0  0.43020  0.49635  0.71481  1.0000
  I   I208      1.0  0.49668  0.42618  0.71223  1.0000
  I   I209      1.0  0.56945  0.42728  0.79546  1.0000
  I   I210      1.0  0.56997  0.49540  0.71460  1.0000
  I   I211      1.0  0.63803  0.42498  0.71023  1.0000
  I   I212      1.0  0.69824  0.42551  0.79329  1.0000
  I   I213      1.0  0.71400  0.49534  0.72477  1.0000
  I   I214      1.0  0.78425  0.42166  0.71100  1.0000
  I   I215      1.0  0.21616  0.57965  0.71911  1.0000
  I   I216      1.0  0.29435  0.56644  0.79158  1.0000
  I   I217      1.0  0.29936  0.63686  0.70645  1.0000
  I   I218      1.0  0.35510  0.55489  0.70907  1.0000
  I   I219      1.0  0.42517  0.56158  0.79562  1.0000
  I   I220      1.0  0.41935  0.63623  0.72155  1.0000
  I   I221      1.0  0.49599  0.56687  0.71421  1.0000
  I   I222      1.0  0.56808  0.56080  0.79523  1.0000
  I   I223      1.0  0.56176  0.63576  0.71843  1.0000
  I   I224      1.0  0.63885  0.57087  0.71565  1.0000
  I   I225      1.0  0.71036  0.57432  0.79089  1.0000
  I   I226      1.0  0.71878  0.63603  0.70849  1.0000
  I   I227      1.0  0.78382  0.56308  0.71144  1.0000
  I   I228      1.0  0.21625  0.69432  0.70709  1.0000
  I   I229      1.0  0.28816  0.69451  0.78759  1.0000
  I   I230      1.0  0.28234  0.77895  0.71976  1.0000
  I   I231      1.0  0.35635  0.71054  0.70903  1.0000
  I   I232      1.0  0.43890  0.70496  0.79340  1.0000
  I   I233      1.0  0.43185  0.77994  0.71022  1.0000
  I   I234      1.0  0.49589  0.70219  0.70546  1.0000
  I   I235      1.0  0.55291  0.69829  0.79334  1.0000
  I   I236      1.0  0.55742  0.78663  0.71007  1.0000
  I   I237      1.0  0.63533  0.69208  0.70415  1.0000
  I   I238      1.0  0.67418  0.70196  0.77731  1.0000
  I   I239      1.0  0.66833  0.80441  0.69810  1.0000
  I   I240      1.0  0.78044  0.72129  0.67703  1.0000
  Pb  Pb1       1.0  0.27356  0.28606  0.27560  1.0000
  Pb  Pb2       1.0  0.41363  0.28744  0.27280  1.0000
  Pb  Pb3       1.0  0.55218  0.27792  0.27964  1.0000
  Pb  Pb4       1.0  0.69198  0.28873  0.27348  1.0000
  Pb  Pb5       1.0  0.28097  0.42707  0.27305  1.0000
  Pb  Pb6       1.0  0.42155  0.42546  0.27742  1.0000
  Pb  Pb7       1.0  0.55788  0.42403  0.27822  1.0000
  Pb  Pb8       1.0  0.69894  0.42586  0.27996  1.0000
  Pb  Pb9       1.0  0.27510  0.56859  0.27815  1.0000
  Pb  Pb10      1.0  0.41276  0.56824  0.27577  1.0000
  Pb  Pb11      1.0  0.55364  0.56682  0.27783  1.0000
  Pb  Pb12      1.0  0.69193  0.56731  0.27953  1.0000
  Pb  Pb13      1.0  0.26975  0.71604  0.27971  1.0000
  Pb  Pb14      1.0  0.41391  0.71328  0.27780  1.0000
  Pb  Pb15      1.0  0.54883  0.71563  0.27813  1.0000
  Pb  Pb16      1.0  0.68842  0.71182  0.27618  1.0000
  Pb  Pb17      1.0  0.27688  0.28067  0.42614  1.0000
  Pb  Pb18      1.0  0.41856  0.27484  0.42726  1.0000
  Pb  Pb19      1.0  0.56000  0.27747  0.43103  1.0000
  Pb  Pb20      1.0  0.71952  0.27379  0.41376  1.0000
  Pb  Pb21      1.0  0.27636  0.42330  0.42456  1.0000
  Pb  Pb22      1.0  0.41951  0.42145  0.42554  1.0000
  Pb  Pb23      1.0  0.56222  0.42202  0.42627  1.0000
  Pb  Pb24      1.0  0.71048  0.41970  0.42602  1.0000
  Pb  Pb25      1.0  0.27619  0.56744  0.42574  1.0000
  Pb  Pb26      1.0  0.41957  0.56480  0.42535  1.0000
  Pb  Pb27      1.0  0.56191  0.56498  0.42549  1.0000
  Pb  Pb28      1.0  0.70997  0.56305  0.42551  1.0000
  Pb  Pb29      1.0  0.27335  0.71611  0.42825  1.0000
  Pb  Pb30      1.0  0.41755  0.70935  0.42669  1.0000
  Pb  Pb31      1.0  0.56334  0.71040  0.42706  1.0000
  Pb  Pb32      1.0  0.71567  0.69957  0.42632  1.0000
  Pb  Pb33      1.0  0.28203  0.27653  0.57203  1.0000
  Pb  Pb34      1.0  0.42166  0.27605  0.57455  1.0000
  Pb  Pb35      1.0  0.56328  0.27799  0.57206  1.0000
  Pb  Pb36      1.0  0.71707  0.27499  0.57774  1.0000
  Pb  Pb37      1.0  0.28267  0.42213  0.57378  1.0000
  Pb  Pb38      1.0  0.42510  0.42114  0.57310  1.0000
  Pb  Pb39      1.0  0.56629  0.42177  0.57299  1.0000
  Pb  Pb40      1.0  0.71428  0.42027  0.57211  1.0000
  Pb  Pb41      1.0  0.27944  0.56633  0.57332  1.0000
  Pb  Pb42      1.0  0.42394  0.56366  0.57301  1.0000
  Pb  Pb43      1.0  0.56730  0.56378  0.57312  1.0000
  Pb  Pb44      1.0  0.71341  0.56334  0.57068  1.0000
  Pb  Pb45      1.0  0.27740  0.71376  0.57043  1.0000
  Pb  Pb46      1.0  0.42092  0.70756  0.57418  1.0000
  Pb  Pb47      1.0  0.56539  0.70669  0.57291  1.0000
  Pb  Pb48      1.0  0.72089  0.70696  0.57617  1.0000
  Pb  Pb49      1.0  0.28234  0.28603  0.72291  1.0000
  Pb  Pb50      1.0  0.42752  0.28796  0.72386  1.0000
  Pb  Pb51      1.0  0.56231  0.28319  0.71987  1.0000
  Pb  Pb52      1.0  0.71642  0.27765  0.72110  1.0000
  Pb  Pb53      1.0  0.28695  0.43011  0.72193  1.0000
  Pb  Pb54      1.0  0.42908  0.42741  0.72656  1.0000
  Pb  Pb55      1.0  0.56903  0.42473  0.72572  1.0000
  Pb  Pb56      1.0  0.70973  0.42215  0.72120  1.0000
  Pb  Pb57      1.0  0.28696  0.57008  0.72196  1.0000
  Pb  Pb58      1.0  0.42759  0.56646  0.72566  1.0000
  Pb  Pb59      1.0  0.57022  0.56404  0.72567  1.0000
  Pb  Pb60      1.0  0.71431  0.56543  0.72014  1.0000
  Pb  Pb61      1.0  0.28741  0.70969  0.71979  1.0000
  Pb  Pb62      1.0  0.42938  0.71000  0.72395  1.0000
  Pb  Pb63      1.0  0.56564  0.70474  0.72468  1.0000
  Pb  Pb64      1.0  0.72449  0.70683  0.71460  1.0000
  C   C1        1.0  0.33968  0.35315  0.20509  1.0000
  C   C2        1.0  0.48213  0.35832  0.19696  1.0000
  C   C3        1.0  0.60850  0.35581  0.20441  1.0000
  C   C4        1.0  0.34300  0.49573  0.20447  1.0000
  C   C5        1.0  0.47684  0.49111  0.20265  1.0000
  C   C6        1.0  0.60935  0.49405  0.21002  1.0000
  C   C7        1.0  0.33766  0.63952  0.20440  1.0000
  C   C8        1.0  0.48074  0.62989  0.20405  1.0000
  C   C9        1.0  0.60948  0.63206  0.20092  1.0000
  C   C10       1.0  0.33052  0.21066  0.34682  1.0000
  C   C11       1.0  0.48385  0.21632  0.35322  1.0000
  C   C12       1.0  0.61542  0.21462  0.35044  1.0000
  C   C13       1.0  0.20465  0.35030  0.35023  1.0000
  C   C14       1.0  0.33800  0.35389  0.35080  1.0000
  C   C15       1.0  0.48018  0.35320  0.35031  1.0000
  C   C16       1.0  0.61477  0.35604  0.35036  1.0000
  C   C17       1.0  0.75675  0.36308  0.35048  1.0000
  C   C18       1.0  0.20586  0.49402  0.35077  1.0000
  C   C19       1.0  0.34320  0.49203  0.34864  1.0000
  C   C20       1.0  0.47968  0.49213  0.34911  1.0000
  C   C21       1.0  0.61573  0.49215  0.35323  1.0000
  C   C22       1.0  0.75521  0.49922  0.34983  1.0000
  C   C23       1.0  0.20720  0.63208  0.35009  1.0000
  C   C24       1.0  0.34242  0.63189  0.35044  1.0000
  C   C25       1.0  0.48008  0.63241  0.34800  1.0000
  C   C26       1.0  0.61521  0.62943  0.34994  1.0000
  C   C27       1.0  0.75735  0.63800  0.34726  1.0000
  C   C28       1.0  0.34162  0.77114  0.35271  1.0000
  C   C29       1.0  0.48057  0.76796  0.35612  1.0000
  C   C30       1.0  0.61086  0.76866  0.35465  1.0000
  C   C31       1.0  0.34444  0.21790  0.49513  1.0000
  C   C32       1.0  0.48059  0.21209  0.49808  1.0000
  C   C33       1.0  0.62197  0.21447  0.49702  1.0000
  C   C34       1.0  0.21135  0.35601  0.49548  1.0000
  C   C35       1.0  0.34611  0.35290  0.49266  1.0000
  C   C36       1.0  0.48212  0.35384  0.49317  1.0000
  C   C37       1.0  0.62243  0.35615  0.49254  1.0000
  C   C38       1.0  0.75676  0.36347  0.49801  1.0000
  C   C39       1.0  0.21070  0.49024  0.49578  1.0000
  C   C40       1.0  0.34555  0.49221  0.49328  1.0000
  C   C41       1.0  0.48489  0.49229  0.49267  1.0000
  C   C42       1.0  0.62216  0.49213  0.49200  1.0000
  C   C43       1.0  0.76361  0.49361  0.48944  1.0000
  C   C44       1.0  0.21135  0.63106  0.49548  1.0000
  C   C45       1.0  0.34569  0.63132  0.49317  1.0000
  C   C46       1.0  0.48434  0.63317  0.49330  1.0000
  C   C47       1.0  0.61949  0.63000  0.49266  1.0000
  C   C48       1.0  0.75714  0.61740  0.49262  1.0000
  C   C49       1.0  0.34311  0.76898  0.50013  1.0000
  C   C50       1.0  0.48207  0.77098  0.50003  1.0000
  C   C51       1.0  0.61178  0.76556  0.50023  1.0000
  C   C52       1.0  0.34418  0.21469  0.64326  1.0000
  C   C53       1.0  0.47750  0.22015  0.64532  1.0000
  C   C54       1.0  0.61628  0.21479  0.64001  1.0000
  C   C55       1.0  0.21184  0.35503  0.63797  1.0000
  C   C56       1.0  0.34833  0.35534  0.63525  1.0000
  C   C57       1.0  0.48728  0.35537  0.63524  1.0000
  C   C58       1.0  0.62261  0.35800  0.63506  1.0000
  C   C59       1.0  0.76395  0.35796  0.63245  1.0000
  C   C60       1.0  0.21188  0.49353  0.63776  1.0000
  C   C61       1.0  0.35046  0.49238  0.63527  1.0000
  C   C62       1.0  0.48726  0.49268  0.63769  1.0000
  C   C63       1.0  0.62729  0.49231  0.63702  1.0000
  C   C64       1.0  0.76460  0.49175  0.63324  1.0000
  C   C65       1.0  0.20937  0.63016  0.63792  1.0000
  C   C66       1.0  0.35068  0.63238  0.63518  1.0000
  C   C67       1.0  0.48711  0.63074  0.63567  1.0000
  C   C68       1.0  0.62456  0.62767  0.63512  1.0000
  C   C69       1.0  0.76298  0.62495  0.63367  1.0000
  C   C70       1.0  0.34760  0.77121  0.64523  1.0000
  C   C71       1.0  0.48499  0.77065  0.64257  1.0000
  C   C72       1.0  0.61859  0.76533  0.63805  1.0000
  C   C73       1.0  0.35557  0.35333  0.78793  1.0000
  C   C74       1.0  0.49844  0.36316  0.77924  1.0000
  C   C75       1.0  0.62286  0.35801  0.77960  1.0000
  C   C76       1.0  0.35212  0.49409  0.77727  1.0000
  C   C77       1.0  0.49552  0.49223  0.77747  1.0000
  C   C78       1.0  0.63344  0.49377  0.77496  1.0000
  C   C79       1.0  0.35465  0.63493  0.78245  1.0000
  C   C80       1.0  0.49231  0.62976  0.77756  1.0000
  C   C81       1.0  0.62460  0.62971  0.78278  1.0000
  N   N1        1.0  0.37081  0.35597  0.21939  1.0000
  N   N2        1.0  0.51162  0.35571  0.21501  1.0000
  N   N3        1.0  0.63874  0.36073  0.22001  1.0000
  N   N4        1.0  0.37488  0.49404  0.21744  1.0000
  N   N5        1.0  0.50910  0.49160  0.21466  1.0000
  N   N6        1.0  0.63905  0.49613  0.22741  1.0000
  N   N7        1.0  0.37187  0.63800  0.20662  1.0000
  N   N8        1.0  0.51142  0.63217  0.21990  1.0000
  N   N9        1.0  0.63834  0.63230  0.22000  1.0000
  N   N10       1.0  0.35186  0.20439  0.37415  1.0000
  N   N11       1.0  0.51619  0.21723  0.36492  1.0000
  N   N12       1.0  0.64845  0.21708  0.35977  1.0000
  N   N13       1.0  0.23577  0.35285  0.36496  1.0000
  N   N14       1.0  0.36971  0.35308  0.36458  1.0000
  N   N15       1.0  0.51148  0.35314  0.36492  1.0000
  N   N16       1.0  0.64591  0.35826  0.36519  1.0000
  N   N17       1.0  0.78245  0.34329  0.36200  1.0000
  N   N18       1.0  0.23875  0.49168  0.35962  1.0000
  N   N19       1.0  0.37481  0.49165  0.36256  1.0000
  N   N20       1.0  0.51143  0.49154  0.36248  1.0000
  N   N21       1.0  0.64820  0.49162  0.36495  1.0000
  N   N22       1.0  0.78012  0.49130  0.37267  1.0000
  N   N23       1.0  0.23845  0.63237  0.36460  1.0000
  N   N24       1.0  0.37474  0.63210  0.36233  1.0000
  N   N25       1.0  0.51143  0.63229  0.36258  1.0000
  N   N26       1.0  0.64618  0.62966  0.36510  1.0000
  N   N27       1.0  0.78691  0.62980  0.36264  1.0000
  N   N28       1.0  0.37505  0.76794  0.35976  1.0000
  N   N29       1.0  0.51386  0.76803  0.36463  1.0000
  N   N30       1.0  0.64491  0.76454  0.35621  1.0000
  N   N31       1.0  0.37735  0.21972  0.50490  1.0000
  N   N32       1.0  0.50942  0.20012  0.51210  1.0000
  N   N33       1.0  0.65504  0.22134  0.50303  1.0000
  N   N34       1.0  0.24334  0.35324  0.50750  1.0000
  N   N35       1.0  0.37729  0.35304  0.50756  1.0000
  N   N36       1.0  0.51367  0.35331  0.50718  1.0000
  N   N37       1.0  0.65332  0.35784  0.50784  1.0000
  N   N38       1.0  0.78693  0.34814  0.50248  1.0000
  N   N39       1.0  0.24299  0.49138  0.50753  1.0000
  N   N40       1.0  0.37710  0.49154  0.50731  1.0000
  N   N41       1.0  0.51612  0.49155  0.50756  1.0000
  N   N42       1.0  0.65294  0.49132  0.50759  1.0000
  N   N43       1.0  0.78069  0.48771  0.51929  1.0000
  N   N44       1.0  0.24345  0.63230  0.50728  1.0000
  N   N45       1.0  0.37714  0.63214  0.50746  1.0000
  N   N46       1.0  0.51587  0.63198  0.50736  1.0000
  N   N47       1.0  0.65052  0.62719  0.50763  1.0000
  N   N48       1.0  0.77776  0.63930  0.50979  1.0000
  N   N49       1.0  0.37727  0.76802  0.50251  1.0000
  N   N50       1.0  0.51613  0.76787  0.50238  1.0000
  N   N51       1.0  0.64555  0.76276  0.50518  1.0000
  N   N52       1.0  0.37734  0.21711  0.65239  1.0000
  N   N53       1.0  0.50930  0.20756  0.64488  1.0000
  N   N54       1.0  0.64850  0.22482  0.64519  1.0000
  N   N55       1.0  0.24322  0.35288  0.65247  1.0000
  N   N56       1.0  0.37954  0.35553  0.65003  1.0000
  N   N57       1.0  0.51850  0.35549  0.65003  1.0000
  N   N58       1.0  0.65332  0.36048  0.65053  1.0000
  N   N59       1.0  0.79138  0.35294  0.65274  1.0000
  N   N60       1.0  0.24310  0.49132  0.65195  1.0000
  N   N61       1.0  0.38171  0.49159  0.65012  1.0000
  N   N62       1.0  0.51847  0.49158  0.65255  1.0000
  N   N63       1.0  0.65786  0.49146  0.65311  1.0000
  N   N64       1.0  0.79147  0.48928  0.65496  1.0000
  N   N65       1.0  0.24052  0.63238  0.65265  1.0000
  N   N66       1.0  0.38182  0.63222  0.65011  1.0000
  N   N67       1.0  0.51849  0.62984  0.65012  1.0000
  N   N68       1.0  0.65532  0.62481  0.65051  1.0000
  N   N69       1.0  0.78679  0.63439  0.65710  1.0000
  N   N70       1.0  0.38174  0.76764  0.64490  1.0000
  N   N71       1.0  0.51880  0.76519  0.64260  1.0000
  N   N72       1.0  0.65272  0.76311  0.63728  1.0000
  N   N73       1.0  0.38629  0.35809  0.80256  1.0000
  N   N74       1.0  0.51815  0.36049  0.80779  1.0000
  N   N75       1.0  0.64764  0.36349  0.80302  1.0000
  N   N76       1.0  0.38069  0.49252  0.79617  1.0000
  N   N77       1.0  0.52151  0.49206  0.80013  1.0000
  N   N78       1.0  0.65502  0.49406  0.80225  1.0000
  N   N79       1.0  0.38423  0.63199  0.79971  1.0000
  N   N80       1.0  0.51839  0.62686  0.79995  1.0000
  N   N81       1.0  0.65532  0.63157  0.79851  1.0000
  H   H1        1.0  0.34257  0.35439  0.18127  1.0000
  H   H2        1.0  0.32677  0.37114  0.21327  1.0000
  H   H3        1.0  0.33070  0.33223  0.21152  1.0000
  H   H4        1.0  0.38039  0.37640  0.21352  1.0000
  H   H5        1.0  0.38461  0.33895  0.21134  1.0000
  H   H6        1.0  0.37045  0.35446  0.24293  1.0000
  H   H7        1.0  0.48746  0.35922  0.17346  1.0000
  H   H8        1.0  0.47170  0.37841  0.20378  1.0000
  H   H9        1.0  0.46896  0.33951  0.20204  1.0000
  H   H10       1.0  0.52509  0.37388  0.20939  1.0000
  H   H11       1.0  0.52257  0.33572  0.21039  1.0000
  H   H12       1.0  0.50780  0.35679  0.23816  1.0000
  H   H13       1.0  0.61217  0.35656  0.18071  1.0000
  H   H14       1.0  0.59428  0.37330  0.21122  1.0000
  H   H15       1.0  0.60028  0.33476  0.21130  1.0000
  H   H16       1.0  0.64783  0.38144  0.21399  1.0000
  H   H17       1.0  0.65322  0.34360  0.21365  1.0000
  H   H18       1.0  0.63703  0.36011  0.24349  1.0000
  H   H19       1.0  0.34487  0.49746  0.18056  1.0000
  H   H20       1.0  0.33271  0.51480  0.21393  1.0000
  H   H21       1.0  0.33192  0.47586  0.21079  1.0000
  H   H22       1.0  0.38641  0.51338  0.21140  1.0000
  H   H23       1.0  0.38579  0.47512  0.20923  1.0000
  H   H24       1.0  0.37436  0.49285  0.24088  1.0000
  H   H25       1.0  0.47806  0.48802  0.17874  1.0000
  H   H26       1.0  0.46691  0.51173  0.20844  1.0000
  H   H27       1.0  0.46593  0.47300  0.21320  1.0000
  H   H28       1.0  0.52015  0.51017  0.20627  1.0000
  H   H29       1.0  0.52024  0.47219  0.20817  1.0000
  H   H30       1.0  0.51022  0.49277  0.23833  1.0000
  H   H31       1.0  0.61458  0.49482  0.18655  1.0000
  H   H32       1.0  0.59617  0.51244  0.21651  1.0000
  H   H33       1.0  0.59934  0.47350  0.21595  1.0000
  H   H34       1.0  0.65008  0.51587  0.22175  1.0000
  H   H35       1.0  0.65216  0.47774  0.22152  1.0000
  H   H36       1.0  0.63567  0.49555  0.25062  1.0000
  H   H37       1.0  0.33191  0.64069  0.18111  1.0000
  H   H38       1.0  0.33044  0.65867  0.21640  1.0000
  H   H39       1.0  0.32914  0.61980  0.21433  1.0000
  H   H40       1.0  0.38159  0.65574  0.19541  1.0000
  H   H41       1.0  0.37976  0.61796  0.19773  1.0000
  H   H42       1.0  0.37852  0.63873  0.22948  1.0000
  H   H43       1.0  0.48462  0.62605  0.18059  1.0000
  H   H44       1.0  0.46928  0.65012  0.20813  1.0000
  H   H45       1.0  0.46958  0.61146  0.21380  1.0000
  H   H46       1.0  0.52243  0.65159  0.21360  1.0000
  H   H47       1.0  0.52408  0.61343  0.21412  1.0000
  H   H48       1.0  0.50889  0.63246  0.24326  1.0000
  H   H49       1.0  0.61546  0.63082  0.17773  1.0000
  H   H50       1.0  0.59781  0.65197  0.20579  1.0000
  H   H51       1.0  0.59720  0.61306  0.20754  1.0000
  H   H52       1.0  0.65103  0.65105  0.21448  1.0000
  H   H53       1.0  0.65049  0.61271  0.21605  1.0000
  H   H54       1.0  0.63354  0.63346  0.24294  1.0000
  H   H55       1.0  0.34229  0.20714  0.32643  1.0000
  H   H56       1.0  0.32353  0.23320  0.34864  1.0000
  H   H57       1.0  0.31241  0.19583  0.34848  1.0000
  H   H58       1.0  0.36990  0.21866  0.37269  1.0000
  H   H59       1.0  0.35902  0.18228  0.37410  1.0000
  H   H60       1.0  0.34099  0.20870  0.39430  1.0000
  H   H61       1.0  0.48465  0.21651  0.32919  1.0000
  H   H62       1.0  0.47296  0.23558  0.36152  1.0000
  H   H63       1.0  0.47393  0.19656  0.36152  1.0000
  H   H64       1.0  0.52549  0.23835  0.36086  1.0000
  H   H65       1.0  0.52879  0.20175  0.35327  1.0000
  H   H66       1.0  0.51815  0.21312  0.38816  1.0000
  H   H67       1.0  0.61425  0.21591  0.32642  1.0000
  H   H68       1.0  0.60421  0.23281  0.36059  1.0000
  H   H69       1.0  0.60732  0.19387  0.35847  1.0000
  H   H70       1.0  0.65665  0.23823  0.35429  1.0000
  H   H71       1.0  0.66113  0.20135  0.34863  1.0000
  H   H72       1.0  0.65185  0.21410  0.38309  1.0000
  H   H73       1.0  0.20747  0.34916  0.32642  1.0000
  H   H74       1.0  0.19253  0.36946  0.35652  1.0000
  H   H75       1.0  0.19443  0.33075  0.35878  1.0000
  H   H76       1.0  0.24649  0.37241  0.35819  1.0000
  H   H77       1.0  0.24866  0.33434  0.35898  1.0000
  H   H78       1.0  0.23411  0.35315  0.38838  1.0000
  H   H79       1.0  0.34011  0.35411  0.32686  1.0000
  H   H80       1.0  0.32763  0.37364  0.35868  1.0000
  H   H81       1.0  0.32678  0.33454  0.35843  1.0000
  H   H82       1.0  0.38132  0.37228  0.35858  1.0000
  H   H83       1.0  0.38103  0.33480  0.35630  1.0000
  H   H84       1.0  0.36955  0.35171  0.38817  1.0000
  H   H85       1.0  0.48277  0.35175  0.32647  1.0000
  H   H86       1.0  0.46976  0.37351  0.35642  1.0000
  H   H87       1.0  0.46862  0.33448  0.35887  1.0000
  H   H88       1.0  0.52329  0.37201  0.35806  1.0000
  H   H89       1.0  0.52325  0.33402  0.35887  1.0000
  H   H90       1.0  0.51035  0.35377  0.38840  1.0000
  H   H91       1.0  0.61770  0.35420  0.32660  1.0000
  H   H92       1.0  0.60312  0.37579  0.35591  1.0000
  H   H93       1.0  0.60419  0.33682  0.35913  1.0000
  H   H94       1.0  0.65760  0.37623  0.35627  1.0000
  H   H95       1.0  0.65792  0.33875  0.36131  1.0000
  H   H96       1.0  0.64444  0.36145  0.38840  1.0000
  H   H97       1.0  0.76237  0.37151  0.32883  1.0000
  H   H98       1.0  0.75387  0.38084  0.36605  1.0000
  H   H99       1.0  0.73748  0.34990  0.34908  1.0000
  H   H100      1.0  0.80412  0.35530  0.36091  1.0000
  H   H101      1.0  0.78384  0.32449  0.34876  1.0000
  H   H102      1.0  0.77936  0.33687  0.38441  1.0000
  H   H103      1.0  0.20451  0.49288  0.32682  1.0000
  H   H104      1.0  0.19802  0.51479  0.35878  1.0000
  H   H105      1.0  0.19458  0.47602  0.36111  1.0000
  H   H106      1.0  0.25039  0.50986  0.35097  1.0000
  H   H107      1.0  0.24809  0.47191  0.35156  1.0000
  H   H108      1.0  0.24194  0.49220  0.38327  1.0000
  H   H109      1.0  0.34536  0.49218  0.32473  1.0000
  H   H110      1.0  0.33264  0.51177  0.35627  1.0000
  H   H111      1.0  0.33214  0.47262  0.35630  1.0000
  H   H112      1.0  0.38665  0.51043  0.35575  1.0000
  H   H113      1.0  0.38615  0.47230  0.35616  1.0000
  H   H114      1.0  0.37377  0.49198  0.38602  1.0000
  H   H115      1.0  0.48168  0.49229  0.32518  1.0000
  H   H116      1.0  0.46919  0.51189  0.35670  1.0000
  H   H117      1.0  0.46849  0.47278  0.35667  1.0000
  H   H118      1.0  0.52327  0.50989  0.35455  1.0000
  H   H119      1.0  0.52236  0.47200  0.35611  1.0000
  H   H120      1.0  0.51149  0.49246  0.38599  1.0000
  H   H121      1.0  0.61639  0.49230  0.32921  1.0000
  H   H122      1.0  0.60573  0.51187  0.36159  1.0000
  H   H123      1.0  0.60512  0.47271  0.36143  1.0000
  H   H124      1.0  0.65972  0.50980  0.35644  1.0000
  H   H125      1.0  0.65906  0.47202  0.35839  1.0000
  H   H126      1.0  0.64907  0.49276  0.38840  1.0000
  H   H127      1.0  0.76506  0.50565  0.32911  1.0000
  H   H128      1.0  0.74236  0.51686  0.35875  1.0000
  H   H129      1.0  0.74213  0.47994  0.34656  1.0000
  H   H130      1.0  0.78992  0.51028  0.38111  1.0000
  H   H131      1.0  0.79645  0.47697  0.36081  1.0000
  H   H132      1.0  0.77181  0.47938  0.39078  1.0000
  H   H133      1.0  0.20986  0.63363  0.32625  1.0000
  H   H134      1.0  0.19561  0.65076  0.35863  1.0000
  H   H135      1.0  0.19692  0.61175  0.35630  1.0000
  H   H136      1.0  0.24936  0.65221  0.35908  1.0000
  H   H137      1.0  0.25066  0.61405  0.35686  1.0000
  H   H138      1.0  0.23750  0.63095  0.38810  1.0000
  H   H139      1.0  0.34320  0.63290  0.32643  1.0000
  H   H140      1.0  0.33156  0.65084  0.35945  1.0000
  H   H141      1.0  0.33240  0.61181  0.35792  1.0000
  H   H142      1.0  0.38599  0.65067  0.35396  1.0000
  H   H143      1.0  0.38572  0.61274  0.35567  1.0000
  H   H144      1.0  0.37585  0.63327  0.38589  1.0000
  H   H145      1.0  0.48267  0.63093  0.32417  1.0000
  H   H146      1.0  0.46954  0.65267  0.35407  1.0000
  H   H147      1.0  0.46860  0.61357  0.35644  1.0000
  H   H148      1.0  0.52354  0.65095  0.35590  1.0000
  H   H149      1.0  0.52278  0.61284  0.35646  1.0000
  H   H150      1.0  0.51008  0.63268  0.38600  1.0000
  H   H151      1.0  0.61827  0.63099  0.32618  1.0000
  H   H152      1.0  0.60327  0.64802  0.35827  1.0000
  H   H153      1.0  0.60483  0.60905  0.35580  1.0000
  H   H154      1.0  0.65787  0.64882  0.35900  1.0000
  H   H155      1.0  0.65854  0.61103  0.35856  1.0000
  H   H156      1.0  0.64462  0.62912  0.38850  1.0000
  H   H157      1.0  0.76105  0.64064  0.32373  1.0000
  H   H158      1.0  0.74940  0.65821  0.35653  1.0000
  H   H159      1.0  0.74212  0.62056  0.35114  1.0000
  H   H160      1.0  0.80328  0.64655  0.35856  1.0000
  H   H161      1.0  0.79517  0.60883  0.35365  1.0000
  H   H162      1.0  0.78395  0.62788  0.38563  1.0000
  H   H163      1.0  0.33778  0.76196  0.33087  1.0000
  H   H164      1.0  0.33621  0.79409  0.35335  1.0000
  H   H165      1.0  0.32988  0.75895  0.36936  1.0000
  H   H166      1.0  0.38757  0.77874  0.34327  1.0000
  H   H167      1.0  0.38132  0.74541  0.35899  1.0000
  H   H168      1.0  0.38076  0.77613  0.38125  1.0000
  H   H169      1.0  0.47909  0.76375  0.33253  1.0000
  H   H170      1.0  0.47156  0.78906  0.36152  1.0000
  H   H171      1.0  0.47025  0.75071  0.36864  1.0000
  H   H172      1.0  0.52516  0.78118  0.34907  1.0000
  H   H173      1.0  0.52241  0.74630  0.36252  1.0000
  H   H174      1.0  0.51813  0.77532  0.38670  1.0000
  H   H175      1.0  0.60454  0.76643  0.33161  1.0000
  H   H176      1.0  0.60560  0.79003  0.36332  1.0000
  H   H177      1.0  0.60113  0.75165  0.36798  1.0000
  H   H178      1.0  0.65525  0.77412  0.33694  1.0000
  H   H179      1.0  0.65069  0.74181  0.35612  1.0000
  H   H180      1.0  0.65301  0.77373  0.37592  1.0000
  H   H181      1.0  0.34328  0.22385  0.47192  1.0000
  H   H182      1.0  0.33236  0.23318  0.50860  1.0000
  H   H183      1.0  0.33693  0.19584  0.49877  1.0000
  H   H184      1.0  0.38459  0.24184  0.50473  1.0000
  H   H185      1.0  0.39026  0.20856  0.48893  1.0000
  H   H186      1.0  0.38114  0.21124  0.52657  1.0000
  H   H187      1.0  0.48546  0.22406  0.47804  1.0000
  H   H188      1.0  0.47050  0.22633  0.51411  1.0000
  H   H189      1.0  0.46671  0.19376  0.49335  1.0000
  H   H190      1.0  0.52041  0.21679  0.52337  1.0000
  H   H191      1.0  0.52303  0.19192  0.49556  1.0000
  H   H192      1.0  0.50462  0.18096  0.52897  1.0000
  H   H193      1.0  0.61760  0.21899  0.47386  1.0000
  H   H194      1.0  0.60929  0.22835  0.51139  1.0000
  H   H195      1.0  0.61836  0.19154  0.50155  1.0000
  H   H196      1.0  0.65999  0.24369  0.49902  1.0000
  H   H197      1.0  0.66826  0.20880  0.48871  1.0000
  H   H198      1.0  0.66081  0.21669  0.52564  1.0000
  H   H199      1.0  0.21214  0.35634  0.47147  1.0000
  H   H200      1.0  0.20246  0.37618  0.50407  1.0000
  H   H201      1.0  0.19958  0.33730  0.50363  1.0000
  H   H202      1.0  0.25560  0.37200  0.50129  1.0000
  H   H203      1.0  0.25375  0.33408  0.49918  1.0000
  H   H204      1.0  0.24392  0.35182  0.53102  1.0000
  H   H205      1.0  0.34889  0.35437  0.46885  1.0000
  H   H206      1.0  0.33445  0.37163  0.50111  1.0000
  H   H207      1.0  0.33562  0.33260  0.49871  1.0000
  H   H208      1.0  0.38869  0.37245  0.50172  1.0000
  H   H209      1.0  0.38956  0.33457  0.50066  1.0000
  H   H210      1.0  0.37575  0.35216  0.53098  1.0000
  H   H211      1.0  0.48439  0.35391  0.46923  1.0000
  H   H212      1.0  0.47151  0.37355  0.50074  1.0000
  H   H213      1.0  0.47089  0.33451  0.50077  1.0000
  H   H214      1.0  0.52598  0.37137  0.49943  1.0000
  H   H215      1.0  0.52438  0.33349  0.50134  1.0000
  H   H216      1.0  0.51331  0.35440  0.53074  1.0000
  H   H217      1.0  0.62565  0.35441  0.46883  1.0000
  H   H218      1.0  0.61086  0.37594  0.49820  1.0000
  H   H219      1.0  0.61167  0.33695  0.50115  1.0000
  H   H220      1.0  0.66502  0.37662  0.50072  1.0000
  H   H221      1.0  0.66572  0.33880  0.50301  1.0000
  H   H222      1.0  0.65138  0.35918  0.53122  1.0000
  H   H223      1.0  0.75603  0.37180  0.47560  1.0000
  H   H224      1.0  0.75504  0.38105  0.51387  1.0000
  H   H225      1.0  0.74002  0.34738  0.50141  1.0000
  H   H226      1.0  0.80504  0.36374  0.49916  1.0000
  H   H227      1.0  0.78922  0.33195  0.48581  1.0000
  H   H228      1.0  0.78815  0.33804  0.52353  1.0000
  H   H229      1.0  0.21153  0.48998  0.47176  1.0000
  H   H230      1.0  0.19993  0.50966  0.50369  1.0000
  H   H231      1.0  0.20074  0.47053  0.50427  1.0000
  H   H232      1.0  0.25375  0.51009  0.49891  1.0000
  H   H233      1.0  0.25443  0.47217  0.50101  1.0000
  H   H234      1.0  0.24417  0.49261  0.53104  1.0000
  H   H235      1.0  0.34776  0.49232  0.46933  1.0000
  H   H236      1.0  0.33502  0.51196  0.50093  1.0000
  H   H237      1.0  0.33430  0.47284  0.50079  1.0000
  H   H238      1.0  0.38912  0.51014  0.50035  1.0000
  H   H239      1.0  0.38826  0.47212  0.50100  1.0000
  H   H240      1.0  0.37652  0.49207  0.53086  1.0000
  H   H241      1.0  0.48775  0.49278  0.46883  1.0000
  H   H242      1.0  0.47407  0.51183  0.50043  1.0000
  H   H243      1.0  0.47353  0.47272  0.49939  1.0000
  H   H244      1.0  0.52832  0.51015  0.50111  1.0000
  H   H245      1.0  0.52752  0.47226  0.50125  1.0000
  H   H246      1.0  0.51454  0.49161  0.53100  1.0000
  H   H247      1.0  0.62564  0.49226  0.46826  1.0000
  H   H248      1.0  0.61139  0.51197  0.49898  1.0000
  H   H249      1.0  0.61030  0.47287  0.49880  1.0000
  H   H250      1.0  0.66515  0.51030  0.50189  1.0000
  H   H251      1.0  0.66490  0.47241  0.50107  1.0000
  H   H252      1.0  0.65108  0.49065  0.53099  1.0000
  H   H253      1.0  0.77456  0.48250  0.47153  1.0000
  H   H254      1.0  0.76327  0.51694  0.48567  1.0000
  H   H255      1.0  0.74194  0.48529  0.49162  1.0000
  H   H256      1.0  0.80468  0.49294  0.51620  1.0000
  H   H257      1.0  0.77873  0.46572  0.52625  1.0000
  H   H258      1.0  0.77248  0.50105  0.53629  1.0000
  H   H259      1.0  0.21195  0.63095  0.47144  1.0000
  H   H260      1.0  0.20036  0.65012  0.50390  1.0000
  H   H261      1.0  0.20169  0.61117  0.50377  1.0000
  H   H262      1.0  0.25461  0.65076  0.49871  1.0000
  H   H263      1.0  0.25483  0.61291  0.50100  1.0000
  H   H264      1.0  0.24470  0.63368  0.53096  1.0000
  H   H265      1.0  0.34812  0.63110  0.46926  1.0000
  H   H266      1.0  0.33432  0.65069  0.50045  1.0000
  H   H267      1.0  0.33521  0.61158  0.50090  1.0000
  H   H268      1.0  0.38868  0.65089  0.50018  1.0000
  H   H269      1.0  0.38890  0.61299  0.50142  1.0000
  H   H270      1.0  0.37619  0.63290  0.53092  1.0000
  H   H271      1.0  0.48659  0.63340  0.46937  1.0000
  H   H272      1.0  0.47391  0.65289  0.50114  1.0000
  H   H273      1.0  0.47293  0.61380  0.50057  1.0000
  H   H274      1.0  0.52800  0.65082  0.50114  1.0000
  H   H275      1.0  0.52701  0.61279  0.50038  1.0000
  H   H276      1.0  0.51517  0.63145  0.53087  1.0000
  H   H277      1.0  0.62247  0.63092  0.46886  1.0000
  H   H278      1.0  0.60967  0.64989  0.50089  1.0000
  H   H279      1.0  0.60713  0.61092  0.49889  1.0000
  H   H280      1.0  0.66365  0.64509  0.50159  1.0000
  H   H281      1.0  0.66112  0.60750  0.50088  1.0000
  H   H282      1.0  0.64894  0.62643  0.53108  1.0000
  H   H283      1.0  0.76461  0.61589  0.46995  1.0000
  H   H284      1.0  0.73546  0.62584  0.49348  1.0000
  H   H285      1.0  0.75836  0.59644  0.50359  1.0000
  H   H286      1.0  0.77615  0.66024  0.50037  1.0000
  H   H287      1.0  0.80092  0.63175  0.50758  1.0000
  H   H288      1.0  0.77182  0.64076  0.53228  1.0000
  H   H289      1.0  0.33698  0.75900  0.47925  1.0000
  H   H290      1.0  0.33639  0.79155  0.50109  1.0000
  H   H291      1.0  0.33440  0.75673  0.51863  1.0000
  H   H292      1.0  0.38690  0.77876  0.48398  1.0000
  H   H293      1.0  0.38480  0.74591  0.50183  1.0000
  H   H294      1.0  0.38447  0.77723  0.52319  1.0000
  H   H295      1.0  0.47576  0.76386  0.47805  1.0000
  H   H296      1.0  0.47643  0.79363  0.50357  1.0000
  H   H297      1.0  0.47267  0.75693  0.51677  1.0000
  H   H298      1.0  0.52638  0.77844  0.48397  1.0000
  H   H299      1.0  0.52215  0.74530  0.50127  1.0000
  H   H300      1.0  0.52422  0.77608  0.52303  1.0000
  H   H301      1.0  0.60783  0.76444  0.47659  1.0000
  H   H302      1.0  0.60500  0.78628  0.50933  1.0000
  H   H303      1.0  0.60150  0.74748  0.51146  1.0000
  H   H304      1.0  0.65610  0.77894  0.49170  1.0000
  H   H305      1.0  0.65328  0.74187  0.49885  1.0000
  H   H306      1.0  0.65096  0.76640  0.52772  1.0000
  H   H307      1.0  0.34296  0.21625  0.61928  1.0000
  H   H308      1.0  0.33277  0.23257  0.65374  1.0000
  H   H309      1.0  0.33629  0.19372  0.65096  1.0000
  H   H310      1.0  0.38515  0.23895  0.64935  1.0000
  H   H311      1.0  0.38984  0.20341  0.63855  1.0000
  H   H312      1.0  0.38096  0.21122  0.67486  1.0000
  H   H313      1.0  0.46703  0.21358  0.62495  1.0000
  H   H314      1.0  0.47837  0.24368  0.64686  1.0000
  H   H315      1.0  0.46658  0.21112  0.66440  1.0000
  H   H316      1.0  0.52054  0.21521  0.62611  1.0000
  H   H317      1.0  0.50755  0.18306  0.64364  1.0000
  H   H318      1.0  0.52109  0.21363  0.66395  1.0000
  H   H319      1.0  0.61132  0.21848  0.61685  1.0000
  H   H320      1.0  0.60250  0.22791  0.65399  1.0000
  H   H321      1.0  0.61458  0.19189  0.64558  1.0000
  H   H322      1.0  0.65067  0.24799  0.64388  1.0000
  H   H323      1.0  0.66161  0.21628  0.62759  1.0000
  H   H324      1.0  0.65668  0.21855  0.66634  1.0000
  H   H325      1.0  0.21438  0.35692  0.61416  1.0000
  H   H326      1.0  0.20144  0.37412  0.64709  1.0000
  H   H327      1.0  0.20039  0.33523  0.64375  1.0000
  H   H328      1.0  0.25537  0.37225  0.64843  1.0000
  H   H329      1.0  0.25457  0.33472  0.64357  1.0000
  H   H330      1.0  0.24195  0.34982  0.67577  1.0000
  H   H331      1.0  0.35099  0.35680  0.61143  1.0000
  H   H332      1.0  0.33662  0.37404  0.64367  1.0000
  H   H333      1.0  0.33798  0.33499  0.64134  1.0000
  H   H334      1.0  0.39129  0.37469  0.64411  1.0000
  H   H335      1.0  0.39140  0.33667  0.64345  1.0000
  H   H336      1.0  0.37819  0.35497  0.67351  1.0000
  H   H337      1.0  0.49003  0.35685  0.61143  1.0000
  H   H338      1.0  0.47561  0.37405  0.64374  1.0000
  H   H339      1.0  0.47689  0.33503  0.64127  1.0000
  H   H340      1.0  0.53000  0.37487  0.64427  1.0000
  H   H341      1.0  0.53079  0.33710  0.64303  1.0000
  H   H342      1.0  0.51720  0.35460  0.67348  1.0000
  H   H343      1.0  0.62596  0.35676  0.61132  1.0000
  H   H344      1.0  0.61026  0.37716  0.64099  1.0000
  H   H345      1.0  0.61243  0.33834  0.64334  1.0000
  H   H346      1.0  0.66495  0.37920  0.64330  1.0000
  H   H347      1.0  0.66585  0.34143  0.64584  1.0000
  H   H348      1.0  0.65121  0.36192  0.67384  1.0000
  H   H349      1.0  0.76941  0.35169  0.61002  1.0000
  H   H350      1.0  0.75840  0.38088  0.63344  1.0000
  H   H351      1.0  0.74650  0.34468  0.64085  1.0000
  H   H352      1.0  0.81174  0.36452  0.64301  1.0000
  H   H353      1.0  0.79493  0.33039  0.65542  1.0000
  H   H354      1.0  0.78725  0.36183  0.67373  1.0000
  H   H355      1.0  0.21437  0.49518  0.61393  1.0000
  H   H356      1.0  0.20149  0.51273  0.64673  1.0000
  H   H357      1.0  0.20021  0.47398  0.64380  1.0000
  H   H358      1.0  0.25542  0.51028  0.64631  1.0000
  H   H359      1.0  0.25406  0.47234  0.64428  1.0000
  H   H360      1.0  0.24241  0.49026  0.67557  1.0000
  H   H361      1.0  0.35326  0.49292  0.61142  1.0000
  H   H362      1.0  0.33966  0.51190  0.64313  1.0000
  H   H363      1.0  0.33916  0.47277  0.64196  1.0000
  H   H364      1.0  0.39401  0.51009  0.64357  1.0000
  H   H365      1.0  0.39302  0.47219  0.64405  1.0000
  H   H366      1.0  0.38014  0.49207  0.67355  1.0000
  H   H367      1.0  0.49005  0.49338  0.61384  1.0000
  H   H368      1.0  0.47649  0.51212  0.64577  1.0000
  H   H369      1.0  0.47584  0.47305  0.64416  1.0000
  H   H370      1.0  0.53088  0.51020  0.64630  1.0000
  H   H371      1.0  0.52985  0.47222  0.64627  1.0000
  H   H372      1.0  0.51693  0.49165  0.67596  1.0000
  H   H373      1.0  0.63104  0.49244  0.61332  1.0000
  H   H374      1.0  0.61636  0.51207  0.64394  1.0000
  H   H375      1.0  0.61542  0.47300  0.64364  1.0000
  H   H376      1.0  0.67008  0.51067  0.64827  1.0000
  H   H377      1.0  0.67006  0.47271  0.64630  1.0000
  H   H378      1.0  0.65519  0.49010  0.67634  1.0000
  H   H379      1.0  0.76965  0.47987  0.61319  1.0000
  H   H380      1.0  0.76104  0.51465  0.62859  1.0000
  H   H381      1.0  0.74602  0.48231  0.64402  1.0000
  H   H382      1.0  0.81160  0.49773  0.64357  1.0000
  H   H383      1.0  0.79461  0.46745  0.66160  1.0000
  H   H384      1.0  0.78787  0.50219  0.67392  1.0000
  H   H385      1.0  0.21230  0.62816  0.61416  1.0000
  H   H386      1.0  0.19763  0.64996  0.64329  1.0000
  H   H387      1.0  0.19887  0.61106  0.64696  1.0000
  H   H388      1.0  0.25189  0.65040  0.64362  1.0000
  H   H389      1.0  0.25254  0.61279  0.64876  1.0000
  H   H390      1.0  0.23895  0.63555  0.67587  1.0000
  H   H391      1.0  0.35345  0.63086  0.61138  1.0000
  H   H392      1.0  0.34021  0.65266  0.64124  1.0000
  H   H393      1.0  0.33898  0.61369  0.64362  1.0000
  H   H394      1.0  0.39403  0.65080  0.64348  1.0000
  H   H395      1.0  0.39337  0.61283  0.64438  1.0000
  H   H396      1.0  0.38043  0.63301  0.67360  1.0000
  H   H397      1.0  0.48959  0.63080  0.61177  1.0000
  H   H398      1.0  0.47657  0.65050  0.64329  1.0000
  H   H399      1.0  0.47570  0.61142  0.64308  1.0000
  H   H400      1.0  0.53099  0.64809  0.64330  1.0000
  H   H401      1.0  0.52959  0.61022  0.64415  1.0000
  H   H402      1.0  0.51732  0.63049  0.67360  1.0000
  H   H403      1.0  0.62784  0.62864  0.61138  1.0000
  H   H404      1.0  0.61464  0.64752  0.64334  1.0000
  H   H405      1.0  0.61207  0.60860  0.64115  1.0000
  H   H406      1.0  0.66816  0.64354  0.64582  1.0000
  H   H407      1.0  0.66655  0.60567  0.64340  1.0000
  H   H408      1.0  0.65291  0.62327  0.67382  1.0000
  H   H409      1.0  0.77059  0.63064  0.61176  1.0000
  H   H410      1.0  0.74320  0.63634  0.63861  1.0000
  H   H411      1.0  0.75991  0.60161  0.63573  1.0000
  H   H412      1.0  0.78798  0.65732  0.65853  1.0000
  H   H413      1.0  0.80883  0.62521  0.64935  1.0000
  H   H414      1.0  0.78118  0.62595  0.67797  1.0000
  H   H415      1.0  0.33943  0.76172  0.62487  1.0000
  H   H416      1.0  0.34266  0.79425  0.64657  1.0000
  H   H417      1.0  0.33931  0.75951  0.66427  1.0000
  H   H418      1.0  0.39012  0.77710  0.62475  1.0000
  H   H419      1.0  0.38758  0.74503  0.64492  1.0000
  H   H420      1.0  0.39178  0.77697  0.66386  1.0000
  H   H421      1.0  0.47678  0.76379  0.62119  1.0000
  H   H422      1.0  0.48112  0.79363  0.64644  1.0000
  H   H423      1.0  0.47579  0.75756  0.66020  1.0000
  H   H424      1.0  0.52865  0.77398  0.62303  1.0000
  H   H425      1.0  0.52344  0.74238  0.64279  1.0000
  H   H426      1.0  0.52883  0.77406  0.66205  1.0000
  H   H427      1.0  0.61040  0.76133  0.61598  1.0000
  H   H428      1.0  0.61309  0.78702  0.64565  1.0000
  H   H429      1.0  0.61069  0.74911  0.65349  1.0000
  H   H430      1.0  0.66062  0.77429  0.61826  1.0000
  H   H431      1.0  0.66003  0.74109  0.63661  1.0000
  H   H432      1.0  0.66102  0.77385  0.65703  1.0000
  H   H433      1.0  0.35819  0.34586  0.76533  1.0000
  H   H434      1.0  0.34423  0.37396  0.78840  1.0000
  H   H435      1.0  0.34444  0.33714  0.80115  1.0000
  H   H436      1.0  0.39937  0.37127  0.78905  1.0000
  H   H437      1.0  0.39659  0.33782  0.80583  1.0000
  H   H438      1.0  0.38354  0.36926  0.82498  1.0000
  H   H439      1.0  0.51119  0.35941  0.75956  1.0000
  H   H440      1.0  0.48932  0.38485  0.77893  1.0000
  H   H441      1.0  0.48161  0.34698  0.78103  1.0000
  H   H442      1.0  0.53417  0.37673  0.80804  1.0000
  H   H443      1.0  0.52816  0.33989  0.80859  1.0000
  H   H444      1.0  0.50387  0.36374  0.82860  1.0000
  H   H445      1.0  0.63247  0.35401  0.75814  1.0000
  H   H446      1.0  0.60942  0.37719  0.77887  1.0000
  H   H447      1.0  0.61047  0.33924  0.78648  1.0000
  H   H448      1.0  0.66051  0.38129  0.79630  1.0000
  H   H449      1.0  0.66072  0.34462  0.80390  1.0000
  H   H450      1.0  0.63833  0.36893  0.82616  1.0000
  H   H451      1.0  0.35735  0.49273  0.75396  1.0000
  H   H452      1.0  0.34152  0.51461  0.78190  1.0000
  H   H453      1.0  0.33864  0.47592  0.78360  1.0000
  H   H454      1.0  0.39411  0.51032  0.79112  1.0000
  H   H455      1.0  0.39199  0.47312  0.79166  1.0000
  H   H456      1.0  0.37535  0.49323  0.82177  1.0000
  H   H457      1.0  0.50366  0.49217  0.75502  1.0000
  H   H458      1.0  0.48302  0.51180  0.78135  1.0000
  H   H459      1.0  0.48264  0.47296  0.78141  1.0000
  H   H460      1.0  0.53553  0.50965  0.79586  1.0000
  H   H461      1.0  0.53331  0.47249  0.79878  1.0000
  H   H462      1.0  0.51291  0.49530  0.82426  1.0000
  H   H463      1.0  0.64543  0.49477  0.75442  1.0000
  H   H464      1.0  0.61936  0.51246  0.77695  1.0000
  H   H465      1.0  0.62113  0.47376  0.77613  1.0000
  H   H466      1.0  0.66857  0.51232  0.80099  1.0000
  H   H467      1.0  0.66784  0.47503  0.80203  1.0000
  H   H468      1.0  0.64172  0.49578  0.82410  1.0000
  H   H469      1.0  0.35878  0.63810  0.75906  1.0000
  H   H470      1.0  0.34311  0.65343  0.79139  1.0000
  H   H471      1.0  0.34247  0.61512  0.78601  1.0000
  H   H472      1.0  0.39688  0.65076  0.79664  1.0000
  H   H473      1.0  0.39585  0.61383  0.79183  1.0000
  H   H474      1.0  0.37960  0.62829  0.82477  1.0000
  H   H475      1.0  0.50059  0.63309  0.75543  1.0000
  H   H476      1.0  0.47934  0.64823  0.78417  1.0000
  H   H477      1.0  0.47991  0.60983  0.77865  1.0000
  H   H478      1.0  0.53114  0.64589  0.79914  1.0000
  H   H479      1.0  0.53133  0.60878  0.79438  1.0000
  H   H480      1.0  0.50948  0.62319  0.82357  1.0000
  H   H481      1.0  0.62795  0.63110  0.75904  1.0000
  H   H482      1.0  0.61198  0.64799  0.79081  1.0000
  H   H483      1.0  0.61477  0.60906  0.78870  1.0000
  H   H484      1.0  0.66488  0.65232  0.79294  1.0000
  H   H485      1.0  0.66925  0.61412  0.79184  1.0000
  H   H486      1.0  0.65278  0.63052  0.82173  1.0000
  H   H487      1.0  0.12608  0.24803  0.15144  1.0000
  O   O1        1.0  0.14522  0.24287  0.16123  1.0000
  H   H488      1.0  0.14495  0.25283  0.18322  1.0000
  H   H489      1.0  0.14641  0.28543  0.22615  1.0000
  O   O2        1.0  0.14592  0.26406  0.21518  1.0000
  H   H490      1.0  0.14657  0.24857  0.23142  1.0000
  H   H491      1.0  0.13100  0.26044  0.31150  1.0000
  O   O3        1.0  0.13895  0.23957  0.31258  1.0000
  H   H492      1.0  0.15830  0.24098  0.32345  1.0000
  H   H493      1.0  0.13296  0.23581  0.37785  1.0000
  O   O4        1.0  0.14347  0.25138  0.38979  1.0000
  H   H494      1.0  0.14126  0.27506  0.37887  1.0000
  H   H495      1.0  0.15360  0.24076  0.41220  1.0000
  O   O5        1.0  0.16201  0.22717  0.43506  1.0000
  H   H496      1.0  0.15614  0.23690  0.45591  1.0000
  H   H497      1.0  0.12207  0.24320  0.48398  1.0000
  O   O6        1.0  0.14319  0.24933  0.48505  1.0000
  H   H498      1.0  0.14279  0.27222  0.49148  1.0000
  H   H499      1.0  0.15501  0.24320  0.58714  1.0000
  O   O7        1.0  0.16659  0.22874  0.56661  1.0000
  H   H500      1.0  0.16312  0.23823  0.54644  1.0000
  H   H501      1.0  0.12403  0.24373  0.61305  1.0000
  O   O8        1.0  0.14039  0.25678  0.60589  1.0000
  H   H502      1.0  0.14185  0.27909  0.62174  1.0000
  H   H503      1.0  0.15821  0.23911  0.70797  1.0000
  O   O9        1.0  0.16668  0.22717  0.69000  1.0000
  H   H504      1.0  0.16276  0.23860  0.67098  1.0000
  H   H505      1.0  0.13037  0.24819  0.75054  1.0000
  O   O10       1.0  0.14125  0.25994  0.73492  1.0000
  H   H506      1.0  0.14452  0.28098  0.74323  1.0000
  H   H507      1.0  0.11791  0.25067  0.83361  1.0000
  O   O11       1.0  0.13648  0.26176  0.83751  1.0000
  H   H508      1.0  0.13355  0.28525  0.83331  1.0000
  H   H509      1.0  0.13122  0.34008  0.16530  1.0000
  O   O12       1.0  0.13902  0.31844  0.16247  1.0000
  H   H510      1.0  0.14917  0.31225  0.18165  1.0000
  H   H511      1.0  0.12835  0.32703  0.23804  1.0000
  O   O13       1.0  0.14570  0.31391  0.24254  1.0000
  H   H512      1.0  0.16386  0.32952  0.24466  1.0000
  H   H513      1.0  0.12914  0.33758  0.30926  1.0000
  O   O14       1.0  0.13016  0.31460  0.30892  1.0000
  H   H514      1.0  0.13729  0.30898  0.28796  1.0000
  H   H515      1.0  0.13566  0.30229  0.34168  1.0000
  O   O15       1.0  0.13889  0.29904  0.36485  1.0000
  H   H516      1.0  0.13636  0.31956  0.37584  1.0000
  H   H517      1.0  0.12125  0.33933  0.44189  1.0000
  O   O16       1.0  0.11770  0.31718  0.44352  1.0000
  H   H518      1.0  0.12158  0.31114  0.46535  1.0000
  H   H519      1.0  0.12772  0.30467  0.52517  1.0000
  O   O17       1.0  0.13670  0.30372  0.50258  1.0000
  H   H520      1.0  0.15227  0.31951  0.50165  1.0000
  H   H521      1.0  0.11975  0.33247  0.56153  1.0000
  O   O18       1.0  0.11800  0.30982  0.55588  1.0000
  H   H522      1.0  0.12336  0.29666  0.57339  1.0000
  H   H523      1.0  0.13372  0.30633  0.66063  1.0000
  O   O19       1.0  0.14125  0.30178  0.63761  1.0000
  H   H524      1.0  0.14636  0.32241  0.62798  1.0000
  H   H525      1.0  0.12967  0.34382  0.69071  1.0000
  O   O20       1.0  0.12508  0.32075  0.68951  1.0000
  H   H526      1.0  0.13100  0.31203  0.70954  1.0000
  H   H527      1.0  0.13900  0.34168  0.75836  1.0000
  O   O21       1.0  0.14836  0.32114  0.75503  1.0000
  H   H528      1.0  0.17012  0.32534  0.75365  1.0000
  H   H529      1.0  0.12668  0.33737  0.82751  1.0000
  O   O22       1.0  0.13670  0.31602  0.82483  1.0000
  H   H530      1.0  0.14646  0.31658  0.80431  1.0000
  H   H531      1.0  0.12188  0.39321  0.16540  1.0000
  O   O23       1.0  0.12495  0.37299  0.17515  1.0000
  H   H532      1.0  0.11649  0.37325  0.19714  1.0000
  H   H533      1.0  0.09598  0.37403  0.24627  1.0000
  O   O24       1.0  0.11334  0.37548  0.23253  1.0000
  H   H534      1.0  0.12335  0.39645  0.23556  1.0000
  H   H535      1.0  0.13648  0.39524  0.30647  1.0000
  O   O25       1.0  0.13676  0.37273  0.30220  1.0000
  H   H536      1.0  0.15131  0.36979  0.28521  1.0000
  H   H537      1.0  0.12581  0.36666  0.36649  1.0000
  O   O26       1.0  0.13419  0.35332  0.38242  1.0000
  H   H538      1.0  0.13253  0.36349  0.40333  1.0000
  H   H539      1.0  0.12714  0.39976  0.44014  1.0000
  O   O27       1.0  0.13440  0.37808  0.43756  1.0000
  H   H540      1.0  0.15628  0.37905  0.44099  1.0000
  H   H541      1.0  0.12927  0.36433  0.49369  1.0000
  O   O28       1.0  0.14584  0.36844  0.50800  1.0000
  H   H542      1.0  0.15129  0.39282  0.50683  1.0000
  H   H543      1.0  0.11664  0.38366  0.56446  1.0000
  O   O29       1.0  0.12954  0.36565  0.56231  1.0000
  H   H544      1.0  0.13817  0.36626  0.53873  1.0000
  H   H545      1.0  0.14025  0.37231  0.63107  1.0000
  O   O30       1.0  0.15041  0.35776  0.61749  1.0000
  H   H546      1.0  0.14469  0.36209  0.59508  1.0000
  H   H547      1.0  0.13570  0.39746  0.69351  1.0000
  O   O31       1.0  0.14152  0.37514  0.69513  1.0000
  H   H548      1.0  0.16063  0.37419  0.70649  1.0000
  H   H549      1.0  0.10730  0.37851  0.74866  1.0000
  O   O32       1.0  0.12267  0.37815  0.76489  1.0000
  H   H550      1.0  0.13204  0.39997  0.76558  1.0000
  H   H551      1.0  0.12147  0.38676  0.83361  1.0000
  O   O33       1.0  0.11571  0.36806  0.82259  1.0000
  H   H552      1.0  0.11641  0.37206  0.79931  1.0000
  H   H553      1.0  0.13247  0.45574  0.16683  1.0000
  O   O34       1.0  0.13639  0.43287  0.16870  1.0000
  H   H554      1.0  0.13968  0.42906  0.19127  1.0000
  H   H555      1.0  0.13083  0.44924  0.23580  1.0000
  O   O35       1.0  0.13904  0.42712  0.23253  1.0000
  H   H556      1.0  0.15945  0.42601  0.24097  1.0000
  H   H557      1.0  0.14295  0.46242  0.30626  1.0000
  O   O36       1.0  0.14624  0.43204  0.31267  1.0000
  H   H558      1.0  0.14602  0.43097  0.34094  1.0000
  H   H559      1.0  0.13619  0.45561  0.37663  1.0000
  O   O37       1.0  0.14374  0.43216  0.36784  1.0000
  H   H560      1.0  0.16060  0.42371  0.38009  1.0000
  H   H561      1.0  0.11227  0.45298  0.44111  1.0000
  O   O38       1.0  0.12740  0.43707  0.44501  1.0000
  H   H562      1.0  0.14706  0.44517  0.43846  1.0000
  H   H563      1.0  0.14741  0.43551  0.49358  1.0000
  O   O39       1.0  0.15495  0.42242  0.51022  1.0000
  H   H564      1.0  0.14739  0.43013  0.53269  1.0000
  H   H565      1.0  0.12678  0.46115  0.55891  1.0000
  O   O40       1.0  0.13417  0.43964  0.55992  1.0000
  H   H566      1.0  0.13918  0.43618  0.58295  1.0000
  H   H567      1.0  0.14102  0.45653  0.63088  1.0000
  O   O41       1.0  0.14374  0.43710  0.61768  1.0000
  H   H568      1.0  0.16312  0.42812  0.62330  1.0000
  H   H569      1.0  0.12432  0.44722  0.68137  1.0000
  O   O42       1.0  0.13422  0.43227  0.69492  1.0000
  H   H570      1.0  0.15385  0.44084  0.70120  1.0000
  H   H571      1.0  0.13268  0.45273  0.76403  1.0000
  O   O43       1.0  0.14358  0.43221  0.76991  1.0000
  H   H572      1.0  0.16468  0.43393  0.76352  1.0000
  H   H573      1.0  0.13336  0.45861  0.83393  1.0000
  O   O44       1.0  0.13901  0.43580  0.83366  1.0000
  H   H574      1.0  0.14234  0.43122  0.81129  1.0000
  H   H575      1.0  0.13062  0.51412  0.16832  1.0000
  O   O45       1.0  0.13578  0.48976  0.17622  1.0000
  H   H576      1.0  0.12676  0.48802  0.19761  1.0000
  H   H577      1.0  0.10908  0.49015  0.24828  1.0000
  O   O46       1.0  0.12480  0.48158  0.23512  1.0000
  H   H578      1.0  0.14629  0.49166  0.24070  1.0000
  H   H579      1.0  0.13586  0.51046  0.31090  1.0000
  O   O47       1.0  0.14380  0.48623  0.29973  1.0000
  H   H580      1.0  0.15887  0.48846  0.28305  1.0000
  H   H581      1.0  0.12577  0.49705  0.36948  1.0000
  O   O48       1.0  0.12962  0.48159  0.38522  1.0000
  H   H582      1.0  0.12634  0.49067  0.40914  1.0000
  H   H583      1.0  0.11906  0.52524  0.43532  1.0000
  O   O49       1.0  0.12130  0.50232  0.43602  1.0000
  H   H584      1.0  0.12948  0.49787  0.45821  1.0000
  H   H585      1.0  0.13079  0.49272  0.50906  1.0000
  O   O50       1.0  0.14119  0.49896  0.49003  1.0000
  H   H586      1.0  0.14879  0.52081  0.49372  1.0000
  H   H587      1.0  0.12246  0.52060  0.56340  1.0000
  O   O51       1.0  0.12983  0.49890  0.56245  1.0000
  H   H588      1.0  0.15093  0.49997  0.56882  1.0000
  H   H589      1.0  0.14218  0.49056  0.67485  1.0000
  O   O52       1.0  0.13916  0.48519  0.65140  1.0000
  H   H590      1.0  0.13241  0.50410  0.64132  1.0000
  H   H591      1.0  0.13924  0.52461  0.70112  1.0000
  O   O53       1.0  0.14355  0.50163  0.70758  1.0000
  H   H592      1.0  0.16330  0.50039  0.72026  1.0000
  H   H593      1.0  0.09962  0.49001  0.76086  1.0000
  O   O54       1.0  0.12039  0.48378  0.75740  1.0000
  H   H594      1.0  0.12782  0.49242  0.73594  1.0000
  H   H595      1.0  0.13043  0.51535  0.83207  1.0000
  O   O55       1.0  0.13204  0.49249  0.82583  1.0000
  H   H596      1.0  0.12941  0.49251  0.80317  1.0000
  H   H597      1.0  0.12620  0.55668  0.15194  1.0000
  O   O56       1.0  0.12673  0.54189  0.16874  1.0000
  H   H598      1.0  0.13233  0.54943  0.19239  1.0000
  H   H599      1.0  0.13770  0.57459  0.22857  1.0000
  O   O57       1.0  0.14367  0.55376  0.21980  1.0000
  H   H600      1.0  0.16591  0.55532  0.21311  1.0000
  H   H601      1.0  0.12465  0.54980  0.30601  1.0000
  O   O58       1.0  0.12965  0.53374  0.32075  1.0000
  H   H602      1.0  0.13969  0.54328  0.34364  1.0000
  H   H603      1.0  0.13893  0.57680  0.37301  1.0000
  O   O59       1.0  0.14775  0.55388  0.36787  1.0000
  H   H604      1.0  0.16815  0.55183  0.37630  1.0000
  H   H605      1.0  0.11413  0.57824  0.43151  1.0000
  O   O60       1.0  0.12512  0.56063  0.43991  1.0000
  H   H606      1.0  0.14685  0.56436  0.43658  1.0000
  H   H607      1.0  0.14978  0.57216  0.49404  1.0000
  O   O61       1.0  0.15981  0.55313  0.50013  1.0000
  H   H608      1.0  0.17275  0.55718  0.51848  1.0000
  H   H609      1.0  0.11060  0.57406  0.57141  1.0000
  O   O62       1.0  0.12487  0.55816  0.56512  1.0000
  H   H610      1.0  0.14470  0.56381  0.57370  1.0000
  H   H611      1.0  0.14924  0.58522  0.63065  1.0000
  O   O63       1.0  0.15750  0.56300  0.63497  1.0000
  H   H612      1.0  0.17682  0.55955  0.62486  1.0000
  H   H613      1.0  0.12573  0.57175  0.69331  1.0000
  O   O64       1.0  0.13427  0.55285  0.68530  1.0000
  H   H614      1.0  0.14543  0.55647  0.66428  1.0000
  H   H615      1.0  0.12768  0.57901  0.76668  1.0000
  O   O65       1.0  0.13670  0.55808  0.77251  1.0000
  H   H616      1.0  0.15697  0.55633  0.76399  1.0000
  H   H617      1.0  0.12881  0.56795  0.84000  1.0000
  O   O66       1.0  0.13196  0.54824  0.82976  1.0000
  H   H618      1.0  0.13467  0.55244  0.80631  1.0000
  H   H619      1.0  0.12608  0.64237  0.17152  1.0000
  O   O67       1.0  0.13023  0.61903  0.16851  1.0000
  H   H620      1.0  0.12878  0.61061  0.18963  1.0000
  H   H621      1.0  0.11575  0.61627  0.24853  1.0000
  O   O68       1.0  0.13192  0.60954  0.23489  1.0000
  H   H622      1.0  0.15118  0.62104  0.24098  1.0000
  H   H623      1.0  0.12928  0.63650  0.30162  1.0000
  O   O69       1.0  0.13429  0.61496  0.30757  1.0000
  H   H624      1.0  0.15406  0.61053  0.29874  1.0000
  H   H625      1.0  0.12618  0.61634  0.35845  1.0000
  O   O70       1.0  0.12969  0.60468  0.37751  1.0000
  H   H626      1.0  0.12704  0.61489  0.39900  1.0000
  H   H627      1.0  0.11975  0.64890  0.43031  1.0000
  O   O71       1.0  0.12230  0.62596  0.43067  1.0000
  H   H628      1.0  0.13142  0.62090  0.45100  1.0000
  H   H629      1.0  0.11850  0.62088  0.50608  1.0000
  O   O72       1.0  0.13879  0.62261  0.49746  1.0000
  H   H630      1.0  0.14423  0.64505  0.49886  1.0000
  H   H631      1.0  0.12610  0.65058  0.56877  1.0000
  O   O73       1.0  0.12734  0.62720  0.56963  1.0000
  H   H632      1.0  0.14152  0.62073  0.55356  1.0000
  H   H633      1.0  0.14025  0.63325  0.63420  1.0000
  O   O74       1.0  0.13659  0.61286  0.62481  1.0000
  H   H634      1.0  0.13171  0.61713  0.60207  1.0000
  H   H635      1.0  0.13250  0.64597  0.70307  1.0000
  O   O75       1.0  0.13225  0.62243  0.70745  1.0000
  H   H636      1.0  0.15316  0.61554  0.70581  1.0000
  H   H637      1.0  0.09402  0.61359  0.76321  1.0000
  O   O76       1.0  0.11539  0.60981  0.76015  1.0000
  H   H638      1.0  0.12174  0.61626  0.73771  1.0000
  H   H639      1.0  0.12852  0.63801  0.83182  1.0000
  O   O77       1.0  0.13018  0.61604  0.82618  1.0000
  H   H640      1.0  0.12817  0.61551  0.80338  1.0000
  H   H641      1.0  0.12080  0.69319  0.17587  1.0000
  O   O78       1.0  0.12255  0.67244  0.18438  1.0000
  H   H642      1.0  0.12753  0.67489  0.20735  1.0000
  H   H643      1.0  0.13295  0.67977  0.26266  1.0000
  O   O79       1.0  0.13897  0.68159  0.24018  1.0000
  H   H644      1.0  0.16058  0.68553  0.23953  1.0000
  H   H645      1.0  0.09937  0.67903  0.29641  1.0000
  O   O80       1.0  0.12066  0.67388  0.29783  1.0000
  H   H646      1.0  0.12782  0.68035  0.32002  1.0000
  H   H647      1.0  0.12814  0.71210  0.35683  1.0000
  O   O81       1.0  0.13184  0.68913  0.35236  1.0000
  H   H648      1.0  0.14519  0.68045  0.36796  1.0000
  H   H649      1.0  0.11927  0.70460  0.42833  1.0000
  O   O82       1.0  0.12503  0.68408  0.43522  1.0000
  H   H650      1.0  0.13760  0.68613  0.45401  1.0000
  H   H651      1.0  0.14185  0.70144  0.50563  1.0000
  O   O83       1.0  0.15278  0.68164  0.49982  1.0000
  H   H652      1.0  0.17309  0.68762  0.49349  1.0000
  H   H653      1.0  0.12865  0.70673  0.56900  1.0000
  O   O84       1.0  0.13447  0.68390  0.56754  1.0000
  H   H654      1.0  0.15396  0.68374  0.55677  1.0000
  H   H655      1.0  0.14011  0.69011  0.64342  1.0000
  O   O85       1.0  0.14813  0.67403  0.63001  1.0000
  H   H656      1.0  0.14396  0.67975  0.60816  1.0000
  H   H657      1.0  0.13163  0.69987  0.69855  1.0000
  O   O86       1.0  0.13988  0.67789  0.70070  1.0000
  H   H658      1.0  0.16177  0.67995  0.70310  1.0000
  H   H659      1.0  0.13335  0.68238  0.75359  1.0000
  O   O87       1.0  0.14587  0.67401  0.77007  1.0000
  H   H660      1.0  0.16137  0.65988  0.76080  1.0000
  H   H661      1.0  0.12966  0.69948  0.82837  1.0000
  O   O88       1.0  0.13864  0.67785  0.82844  1.0000
  H   H662      1.0  0.14208  0.67476  0.80514  1.0000
  H   H663      1.0  0.10259  0.74682  0.17442  1.0000
  O   O89       1.0  0.12264  0.73831  0.17760  1.0000
  H   H664      1.0  0.12947  0.74430  0.19932  1.0000
  H   H665      1.0  0.13662  0.75427  0.25452  1.0000
  O   O90       1.0  0.14353  0.75550  0.23246  1.0000
  H   H666      1.0  0.16402  0.74723  0.23139  1.0000
  H   H667      1.0  0.12741  0.75402  0.31558  1.0000
  O   O91       1.0  0.13665  0.75060  0.29506  1.0000
  H   H668      1.0  0.15550  0.73938  0.29885  1.0000
  H   H669      1.0  0.11607  0.75423  0.37970  1.0000
  O   O92       1.0  0.12739  0.74547  0.36245  1.0000
  H   H670      1.0  0.15010  0.75042  0.36595  1.0000
  H   H671      1.0  0.15180  0.77819  0.43902  1.0000
  O   O93       1.0  0.14136  0.75804  0.43748  1.0000
  H   H672      1.0  0.15834  0.74366  0.43671  1.0000
  H   H673      1.0  0.11717  0.74218  0.49409  1.0000
  O   O94       1.0  0.13175  0.73580  0.50980  1.0000
  H   H674      1.0  0.15386  0.74560  0.50388  1.0000
  H   H675      1.0  0.12726  0.74162  0.54332  1.0000
  O   O95       1.0  0.12972  0.74079  0.56738  1.0000
  H   H676      1.0  0.15055  0.74699  0.57145  1.0000
  H   H677      1.0  0.12299  0.74457  0.61807  1.0000
  O   O96       1.0  0.13415  0.74322  0.63753  1.0000
  H   H678      1.0  0.15668  0.74476  0.63392  1.0000
  H   H679      1.0  0.12679  0.73893  0.67144  1.0000
  O   O97       1.0  0.12744  0.73348  0.69473  1.0000
  H   H680      1.0  0.14452  0.74463  0.70372  1.0000
  H   H681      1.0  0.11468  0.74936  0.74421  1.0000
  O   O98       1.0  0.12736  0.75309  0.76231  1.0000
  H   H682      1.0  0.14900  0.75697  0.75503  1.0000
  H   H683      1.0  0.12380  0.73988  0.79520  1.0000
  O   O99       1.0  0.12752  0.73330  0.81762  1.0000
  H   H684      1.0  0.14911  0.73943  0.82179  1.0000
  H   H685      1.0  0.18330  0.19654  0.10871  1.0000
  O   O100      1.0  0.19438  0.18281  0.12254  1.0000
  H   H686      1.0  0.18925  0.18909  0.14385  1.0000
  H   H687      1.0  0.16316  0.19611  0.19101  1.0000
  O   O101      1.0  0.18491  0.19286  0.19229  1.0000
  H   H688      1.0  0.19495  0.21472  0.18989  1.0000
  H   H689      1.0  0.20009  0.18633  0.22414  1.0000
  O   O102      1.0  0.21311  0.18285  0.24292  1.0000
  H   H690      1.0  0.21911  0.20255  0.25166  1.0000
  H   H691      1.0  0.19151  0.17821  0.33645  1.0000
  O   O103      1.0  0.20142  0.17518  0.31499  1.0000
  H   H692      1.0  0.19114  0.18588  0.29837  1.0000
  H   H693      1.0  0.18676  0.17405  0.38680  1.0000
  O   O104      1.0  0.18289  0.18526  0.36764  1.0000
  H   H694      1.0  0.19129  0.20684  0.36961  1.0000
  H   H695      1.0  0.17889  0.21144  0.43618  1.0000
  O   O105      1.0  0.20610  0.19003  0.43746  1.0000
  H   H696      1.0  0.22526  0.20120  0.43907  1.0000
  H   H697      1.0  0.15674  0.19652  0.50173  1.0000
  O   O106      1.0  0.17573  0.18540  0.50003  1.0000
  H   H698      1.0  0.19128  0.20139  0.49699  1.0000
  H   H699      1.0  0.18734  0.21405  0.56423  1.0000
  O   O107      1.0  0.21085  0.19775  0.56025  1.0000
  H   H700      1.0  0.22619  0.20112  0.57610  1.0000
  H   H701      1.0  0.16616  0.18933  0.61014  1.0000
  O   O108      1.0  0.18276  0.18754  0.62487  1.0000
  H   H702      1.0  0.19281  0.20812  0.62637  1.0000
  H   H703      1.0  0.19493  0.20619  0.68638  1.0000
  O   O109      1.0  0.21540  0.19539  0.68525  1.0000
  H   H704      1.0  0.22860  0.20539  0.70039  1.0000
  H   H705      1.0  0.19552  0.17871  0.78621  1.0000
  O   O110      1.0  0.21324  0.17834  0.76802  1.0000
  H   H706      1.0  0.21085  0.19992  0.75896  1.0000
  H   H707      1.0  0.18128  0.18873  0.83378  1.0000
  O   O111      1.0  0.17691  0.18441  0.80862  1.0000
  H   H708      1.0  0.15627  0.17778  0.80577  1.0000
  H   H709      1.0  0.17818  0.21237  0.87318  1.0000
  O   O112      1.0  0.18527  0.19281  0.86265  1.0000
  H   H710      1.0  0.20570  0.18641  0.87162  1.0000
  H   H711      1.0  0.16985  0.25393  0.13872  1.0000
  O   O113      1.0  0.18509  0.26167  0.12256  1.0000
  H   H712      1.0  0.18338  0.28535  0.11919  1.0000
  H   H713      1.0  0.19349  0.26225  0.19613  1.0000
  O   O114      1.0  0.20596  0.24455  0.19012  1.0000
  H   H714      1.0  0.22723  0.25076  0.18881  1.0000
  H   H715      1.0  0.20238  0.25335  0.38334  1.0000
  O   O115      1.0  0.20607  0.23730  0.36773  1.0000
  H   H716      1.0  0.22148  0.24433  0.35311  1.0000
  H   H717      1.0  0.19954  0.25555  0.48468  1.0000
  O   O116      1.0  0.21001  0.23995  0.49685  1.0000
  H   H718      1.0  0.23013  0.24812  0.50114  1.0000
  H   H719      1.0  0.20748  0.25568  0.61103  1.0000
  O   O117      1.0  0.20845  0.23985  0.62743  1.0000
  H   H720      1.0  0.22081  0.24804  0.64430  1.0000
  H   H721      1.0  0.19946  0.24285  0.77919  1.0000
  O   O118      1.0  0.20567  0.23318  0.75908  1.0000
  H   H722      1.0  0.20516  0.24862  0.74259  1.0000
  H   H723      1.0  0.17384  0.25538  0.82351  1.0000
  O   O119      1.0  0.19429  0.25899  0.81498  1.0000
  H   H724      1.0  0.19803  0.28331  0.81072  1.0000
  H   H725      1.0  0.15279  0.25242  0.86819  1.0000
  O   O120      1.0  0.16670  0.24453  0.88498  1.0000
  H   H726      1.0  0.17754  0.26223  0.89320  1.0000
  H   H727      1.0  0.16553  0.31806  0.14003  1.0000
  O   O121      1.0  0.18266  0.31747  0.12394  1.0000
  H   H728      1.0  0.18124  0.33768  0.11253  1.0000
  H   H729      1.0  0.19709  0.33855  0.18860  1.0000
  O   O122      1.0  0.19915  0.31608  0.19015  1.0000
  H   H730      1.0  0.21996  0.31205  0.19619  1.0000
  H   H731      1.0  0.19793  0.33308  0.81195  1.0000
  O   O123      1.0  0.20376  0.31127  0.80241  1.0000
  H   H732      1.0  0.22112  0.31279  0.78872  1.0000
  H   H733      1.0  0.17029  0.31234  0.85806  1.0000
  O   O124      1.0  0.18518  0.31125  0.87504  1.0000
  H   H734      1.0  0.18652  0.33215  0.88341  1.0000
  H   H735      1.0  0.16313  0.37644  0.08437  1.0000
  O   O125      1.0  0.17587  0.37295  0.10241  1.0000
  H   H736      1.0  0.17822  0.39349  0.11364  1.0000
  H   H737      1.0  0.16297  0.37684  0.18446  1.0000
  O   O126      1.0  0.18291  0.37795  0.19499  1.0000
  H   H738      1.0  0.19314  0.39892  0.19181  1.0000
  H   H739      1.0  0.18336  0.36639  0.22583  1.0000
  O   O127      1.0  0.18279  0.35549  0.24757  1.0000
  H   H740      1.0  0.20323  0.35286  0.25564  1.0000
  H   H741      1.0  0.20289  0.38605  0.76092  1.0000
  O   O128      1.0  0.20129  0.36791  0.74762  1.0000
  H   H742      1.0  0.22147  0.36449  0.73905  1.0000
  H   H743      1.0  0.18405  0.36647  0.84515  1.0000
  O   O129      1.0  0.18981  0.36093  0.82283  1.0000
  H   H744      1.0  0.19875  0.37965  0.81382  1.0000
  H   H745      1.0  0.15682  0.37660  0.88621  1.0000
  O   O130      1.0  0.17707  0.37884  0.87776  1.0000
  H   H746      1.0  0.18176  0.40231  0.87795  1.0000
  H   H747      1.0  0.16185  0.42765  0.14626  1.0000
  O   O131      1.0  0.17824  0.42479  0.12984  1.0000
  H   H748      1.0  0.18379  0.44479  0.12160  1.0000
  H   H749      1.0  0.19905  0.45092  0.19106  1.0000
  O   O132      1.0  0.20831  0.42962  0.19258  1.0000
  H   H750      1.0  0.22879  0.43122  0.20077  1.0000
  H   H751      1.0  0.20091  0.44125  0.80649  1.0000
  O   O133      1.0  0.20916  0.42038  0.80417  1.0000
  H   H752      1.0  0.23093  0.42311  0.80154  1.0000
  H   H753      1.0  0.16560  0.43529  0.85387  1.0000
  O   O134      1.0  0.18290  0.43461  0.87001  1.0000
  H   H754      1.0  0.18484  0.45517  0.87933  1.0000
  H   H755      1.0  0.17476  0.50075  0.09402  1.0000
  O   O135      1.0  0.18750  0.50139  0.11238  1.0000
  H   H756      1.0  0.18782  0.52398  0.12161  1.0000
  H   H757      1.0  0.16373  0.48756  0.18108  1.0000
  O   O136      1.0  0.18757  0.48399  0.19031  1.0000
  H   H758      1.0  0.20308  0.49547  0.17907  1.0000
  H   H759      1.0  0.18422  0.49102  0.22186  1.0000
  O   O137      1.0  0.17600  0.49655  0.24483  1.0000
  H   H760      1.0  0.18401  0.51658  0.25122  1.0000
  H   H761      1.0  0.18871  0.49275  0.76618  1.0000
  O   O138      1.0  0.18774  0.49638  0.74291  1.0000
  H   H762      1.0  0.20846  0.49975  0.73593  1.0000
  H   H763      1.0  0.18130  0.49498  0.81637  1.0000
  O   O139      1.0  0.19667  0.48636  0.80245  1.0000
  H   H764      1.0  0.21676  0.49535  0.80772  1.0000
  H   H765      1.0  0.15816  0.49950  0.87603  1.0000
  O   O140      1.0  0.17940  0.49784  0.88173  1.0000
  H   H766      1.0  0.18698  0.51931  0.88121  1.0000
  H   H767      1.0  0.19249  0.55250  0.15859  1.0000
  O   O141      1.0  0.19218  0.55298  0.13514  1.0000
  H   H768      1.0  0.17881  0.57207  0.12898  1.0000
  H   H769      1.0  0.19603  0.58475  0.19102  1.0000
  O   O142      1.0  0.19461  0.56055  0.19513  1.0000
  H   H770      1.0  0.21301  0.55457  0.20603  1.0000
  H   H771      1.0  0.20209  0.57880  0.80715  1.0000
  O   O143      1.0  0.20593  0.55578  0.80252  1.0000
  H   H772      1.0  0.21670  0.55447  0.78276  1.0000
  H   H773      1.0  0.19352  0.55679  0.84711  1.0000
  O   O144      1.0  0.19674  0.55822  0.86979  1.0000
  H   H774      1.0  0.18968  0.57917  0.87645  1.0000
  H   H775      1.0  0.14678  0.60667  0.14375  1.0000
  O   O145      1.0  0.15965  0.59756  0.12517  1.0000
  H   H776      1.0  0.16320  0.61329  0.10964  1.0000
  H   H777      1.0  0.18341  0.62887  0.17876  1.0000
  O   O146      1.0  0.19922  0.61476  0.18503  1.0000
  H   H778      1.0  0.22048  0.62399  0.18404  1.0000
  H   H779      1.0  0.18918  0.64812  0.23394  1.0000
  O   O147      1.0  0.18072  0.63450  0.24994  1.0000
  H   H780      1.0  0.19586  0.61902  0.25593  1.0000
  H   H781      1.0  0.20279  0.65553  0.77068  1.0000
  O   O148      1.0  0.19215  0.64473  0.75275  1.0000
  H   H782      1.0  0.20252  0.62572  0.74672  1.0000
  H   H783      1.0  0.18169  0.62040  0.82627  1.0000
  O   O149      1.0  0.19901  0.60983  0.81749  1.0000
  H   H784      1.0  0.21898  0.62118  0.81855  1.0000
  H   H785      1.0  0.16290  0.61654  0.90353  1.0000
  O   O150      1.0  0.18047  0.61724  0.89002  1.0000
  H   H786      1.0  0.18151  0.63882  0.88152  1.0000
  H   H787      1.0  0.17931  0.67782  0.14931  1.0000
  O   O151      1.0  0.18304  0.68395  0.12765  1.0000
  H   H788      1.0  0.17217  0.70541  0.12441  1.0000
  H   H789      1.0  0.18613  0.70353  0.19362  1.0000
  O   O152      1.0  0.19217  0.68159  0.19505  1.0000
  H   H790      1.0  0.21422  0.68278  0.19642  1.0000
  H   H791      1.0  0.19512  0.69013  0.80623  1.0000
  O   O153      1.0  0.21068  0.67680  0.79756  1.0000
  H   H792      1.0  0.23016  0.68745  0.79855  1.0000
  H   H793      1.0  0.16327  0.67527  0.85106  1.0000
  O   O154      1.0  0.18047  0.67400  0.86737  1.0000
  H   H794      1.0  0.18012  0.69333  0.87918  1.0000
  H   H795      1.0  0.14377  0.73465  0.14393  1.0000
  O   O155      1.0  0.15725  0.73361  0.12538  1.0000
  H   H796      1.0  0.16692  0.75456  0.12390  1.0000
  H   H797      1.0  0.18387  0.76360  0.18438  1.0000
  O   O156      1.0  0.19223  0.74333  0.19004  1.0000
  H   H798      1.0  0.21416  0.74457  0.18833  1.0000
  H   H799      1.0  0.18384  0.77986  0.37650  1.0000
  O   O157      1.0  0.18067  0.75797  0.37015  1.0000
  H   H800      1.0  0.19584  0.74436  0.37912  1.0000
  H   H801      1.0  0.18337  0.77772  0.50939  1.0000
  O   O158      1.0  0.18070  0.75572  0.50012  1.0000
  H   H802      1.0  0.19631  0.74215  0.50881  1.0000
  H   H803      1.0  0.20060  0.76186  0.61846  1.0000
  O   O159      1.0  0.19004  0.74795  0.63247  1.0000
  H   H804      1.0  0.20468  0.73205  0.63856  1.0000
  H   H805      1.0  0.19126  0.78300  0.74894  1.0000
  O   O160      1.0  0.18062  0.76314  0.74246  1.0000
  H   H806      1.0  0.19537  0.74659  0.74362  1.0000
  H   H807      1.0  0.17789  0.77311  0.82140  1.0000
  O   O161      1.0  0.18296  0.75069  0.82727  1.0000
  H   H808      1.0  0.20433  0.74737  0.81888  1.0000
  H   H809      1.0  0.18461  0.74183  0.85833  1.0000
  O   O162      1.0  0.18903  0.73679  0.88177  1.0000
  H   H810      1.0  0.18864  0.75873  0.89118  1.0000
  H   H811      1.0  0.16794  0.80567  0.11565  1.0000
  O   O163      1.0  0.17589  0.79030  0.12977  1.0000
  H   H812      1.0  0.17402  0.79834  0.15208  1.0000
  H   H813      1.0  0.14790  0.80127  0.19142  1.0000
  O   O164      1.0  0.16876  0.80485  0.18540  1.0000
  H   H814      1.0  0.18060  0.81049  0.20603  1.0000
  H   H815      1.0  0.19575  0.80151  0.25042  1.0000
  O   O165      1.0  0.19892  0.81475  0.23255  1.0000
  H   H816      1.0  0.21989  0.81050  0.22162  1.0000
  H   H817      1.0  0.21289  0.82825  0.31944  1.0000
  O   O166      1.0  0.19758  0.81141  0.32598  1.0000
  H   H818      1.0  0.20236  0.79148  0.31704  1.0000
  H   H819      1.0  0.16579  0.82807  0.37921  1.0000
  O   O167      1.0  0.18496  0.81721  0.37988  1.0000
  H   H820      1.0  0.19174  0.81493  0.35591  1.0000
  H   H821      1.0  0.18692  0.80925  0.41503  1.0000
  O   O168      1.0  0.18302  0.80484  0.43773  1.0000
  H   H822      1.0  0.20023  0.79349  0.44587  1.0000
  H   H823      1.0  0.17241  0.82124  0.51403  1.0000
  O   O169      1.0  0.18755  0.80743  0.52252  1.0000
  H   H824      1.0  0.21036  0.81214  0.51223  1.0000
  H   H825      1.0  0.19484  0.80606  0.55797  1.0000
  O   O170      1.0  0.20396  0.80487  0.57981  1.0000
  H   H826      1.0  0.22346  0.79410  0.57809  1.0000
  H   H827      1.0  0.16170  0.80868  0.63367  1.0000
  O   O171      1.0  0.18272  0.81488  0.63234  1.0000
  H   H828      1.0  0.19095  0.81113  0.61017  1.0000
  H   H829      1.0  0.19942  0.81372  0.66077  1.0000
  O   O172      1.0  0.21309  0.81464  0.68019  1.0000
  H   H830      1.0  0.21136  0.79664  0.69340  1.0000
  H   H831      1.0  0.21057  0.83290  0.75619  1.0000
  O   O173      1.0  0.20660  0.81087  0.76333  1.0000
  H   H832      1.0  0.22582  0.80629  0.77569  1.0000
  H   H833      1.0  0.14975  0.80397  0.80131  1.0000
  O   O174      1.0  0.17083  0.80259  0.80743  1.0000
  H   H834      1.0  0.18438  0.80820  0.78875  1.0000
  H   H835      1.0  0.17911  0.80627  0.89666  1.0000
  O   O175      1.0  0.19454  0.79066  0.89516  1.0000
  H   H836      1.0  0.21501  0.80055  0.88897  1.0000
  H   H837      1.0  0.19950  0.15916  0.18922  1.0000
  O   O176      1.0  0.21292  0.14053  0.18963  1.0000
  H   H838      1.0  0.20748  0.12769  0.17194  1.0000
  H   H839      1.0  0.23040  0.15508  0.24833  1.0000
  O   O177      1.0  0.24052  0.13339  0.24727  1.0000
  H   H840      1.0  0.23128  0.12474  0.22840  1.0000
  H   H841      1.0  0.22346  0.15191  0.31474  1.0000
  O   O178      1.0  0.23838  0.13334  0.31718  1.0000
  H   H842      1.0  0.23709  0.12203  0.29764  1.0000
  H   H843      1.0  0.21653  0.11224  0.38354  1.0000
  O   O179      1.0  0.23509  0.12139  0.37603  1.0000
  H   H844      1.0  0.23492  0.12151  0.35262  1.0000
  H   H845      1.0  0.21008  0.16931  0.44614  1.0000
  O   O180      1.0  0.23360  0.13368  0.45166  1.0000
  H   H846      1.0  0.25775  0.13218  0.44478  1.0000
  H   H847      1.0  0.21613  0.11980  0.49270  1.0000
  O   O181      1.0  0.23651  0.12848  0.48836  1.0000
  H   H848      1.0  0.23583  0.16171  0.50348  1.0000
  H   H849      1.0  0.21200  0.15115  0.56155  1.0000
  O   O182      1.0  0.22272  0.13142  0.56021  1.0000
  H   H850      1.0  0.24396  0.13652  0.56349  1.0000
  H   H851      1.0  0.22577  0.12687  0.61928  1.0000
  O   O183      1.0  0.24068  0.12094  0.63513  1.0000
  H   H852      1.0  0.23305  0.12772  0.65825  1.0000
  H   H853      1.0  0.21881  0.16161  0.68603  1.0000
  O   O184      1.0  0.22566  0.13923  0.68584  1.0000
  H   H854      1.0  0.23027  0.13213  0.70744  1.0000
  H   H855      1.0  0.22601  0.15277  0.75250  1.0000
  O   O185      1.0  0.23840  0.13338  0.74527  1.0000
  H   H856      1.0  0.23672  0.11951  0.76328  1.0000
  H   H857      1.0  0.22132  0.12238  0.82407  1.0000
  O   O186      1.0  0.23828  0.12568  0.81015  1.0000
  H   H858      1.0  0.24523  0.14726  0.81307  1.0000
  H   H859      1.0  0.23709  0.18863  0.11862  1.0000
  O   O187      1.0  0.25437  0.19893  0.12856  1.0000
  H   H860      1.0  0.24685  0.22565  0.12908  1.0000
  H   H861      1.0  0.24332  0.16307  0.18579  1.0000
  O   O188      1.0  0.25692  0.18010  0.17998  1.0000
  H   H862      1.0  0.25546  0.18949  0.15404  1.0000
  H   H863      1.0  0.24690  0.16547  0.36699  1.0000
  O   O189      1.0  0.26312  0.18102  0.36578  1.0000
  H   H864      1.0  0.25789  0.19739  0.38046  1.0000
  H   H865      1.0  0.22134  0.19184  0.53877  1.0000
  O   O190      1.0  0.23642  0.18301  0.51250  1.0000
  H   H866      1.0  0.25466  0.19365  0.50602  1.0000
  H   H867      1.0  0.24605  0.18384  0.65128  1.0000
  O   O191      1.0  0.26383  0.18304  0.63750  1.0000
  H   H868      1.0  0.26782  0.20372  0.62988  1.0000
  H   H869      1.0  0.23706  0.18137  0.78696  1.0000
  O   O192      1.0  0.25411  0.18290  0.80517  1.0000
  H   H870      1.0  0.24863  0.20157  0.81794  1.0000
  H   H871      1.0  0.24599  0.20369  0.88789  1.0000
  O   O193      1.0  0.23637  0.18276  0.88502  1.0000
  H   H872      1.0  0.25236  0.16884  0.87853  1.0000
  H   H873      1.0  0.21076  0.25499  0.12641  1.0000
  O   O194      1.0  0.23632  0.24969  0.12996  1.0000
  H   H874      1.0  0.24879  0.26748  0.13399  1.0000
  H   H875      1.0  0.21786  0.24418  0.82491  1.0000
  O   O195      1.0  0.24080  0.23501  0.82957  1.0000
  H   H876      1.0  0.25377  0.24788  0.81637  1.0000
  H   H877      1.0  0.25105  0.23770  0.85951  1.0000
  O   O196      1.0  0.25928  0.23704  0.88265  1.0000
  H   H878      1.0  0.25118  0.25438  0.89418  1.0000
  H   H879      1.0  0.22069  0.31817  0.13362  1.0000
  O   O197      1.0  0.24283  0.32097  0.13738  1.0000
  H   H880      1.0  0.24609  0.33675  0.15381  1.0000
  H   H881      1.0  0.22919  0.30674  0.87093  1.0000
  O   O198      1.0  0.24987  0.31361  0.87507  1.0000
  H   H882      1.0  0.24988  0.33685  0.87895  1.0000
  H   H883      1.0  0.25010  0.37151  0.09624  1.0000
  O   O199      1.0  0.26620  0.38523  0.10248  1.0000
  H   H884      1.0  0.25814  0.40654  0.11204  1.0000
  H   H885      1.0  0.25936  0.38004  0.18685  1.0000
  O   O200      1.0  0.25700  0.35808  0.18260  1.0000
  H   H886      1.0  0.26301  0.34678  0.20124  1.0000
  H   H887      1.0  0.26954  0.38574  0.80666  1.0000
  O   O201      1.0  0.25714  0.37017  0.81734  1.0000
  H   H888      1.0  0.26262  0.34995  0.80901  1.0000
  H   H889      1.0  0.24871  0.38803  0.88657  1.0000
  O   O202      1.0  0.25465  0.36914  0.87625  1.0000
  H   H890      1.0  0.25528  0.37204  0.85284  1.0000
  H   H891      1.0  0.23427  0.42627  0.14293  1.0000
  O   O203      1.0  0.24981  0.43150  0.12769  1.0000
  H   H892      1.0  0.24597  0.45469  0.11995  1.0000
  H   H893      1.0  0.22945  0.43112  0.86639  1.0000
  O   O204      1.0  0.24992  0.43717  0.87251  1.0000
  H   H894      1.0  0.25064  0.46044  0.87421  1.0000
  H   H895      1.0  0.21835  0.49050  0.11131  1.0000
  O   O205      1.0  0.24066  0.48412  0.11512  1.0000
  H   H896      1.0  0.24715  0.49483  0.13449  1.0000
  H   H897      1.0  0.26009  0.52277  0.18167  1.0000
  O   O206      1.0  0.25236  0.50355  0.17260  1.0000
  H   H898      1.0  0.26241  0.48672  0.18365  1.0000
  H   H899      1.0  0.26341  0.52033  0.80362  1.0000
  O   O207      1.0  0.25468  0.50130  0.81241  1.0000
  H   H900      1.0  0.26575  0.48359  0.80348  1.0000
  H   H901      1.0  0.24645  0.50990  0.88381  1.0000
  O   O208      1.0  0.25647  0.49438  0.87132  1.0000
  H   H902      1.0  0.25547  0.50001  0.84855  1.0000
  H   H903      1.0  0.22864  0.55752  0.12959  1.0000
  O   O209      1.0  0.24982  0.56555  0.12732  1.0000
  H   H904      1.0  0.24802  0.58686  0.11895  1.0000
  H   H905      1.0  0.23317  0.56473  0.87110  1.0000
  O   O210      1.0  0.25342  0.57439  0.87322  1.0000
  H   H906      1.0  0.25321  0.59907  0.88150  1.0000
  H   H907      1.0  0.24007  0.63097  0.08939  1.0000
  O   O211      1.0  0.24512  0.62071  0.10887  1.0000
  H   H908      1.0  0.24400  0.63601  0.12560  1.0000
  H   H909      1.0  0.26074  0.65274  0.19123  1.0000
  O   O212      1.0  0.25211  0.63299  0.18476  1.0000
  H   H910      1.0  0.26530  0.61588  0.19127  1.0000
  H   H911      1.0  0.26331  0.64563  0.80884  1.0000
  O   O213      1.0  0.25237  0.62714  0.81497  1.0000
  H   H912      1.0  0.26513  0.60913  0.81094  1.0000
  H   H913      1.0  0.24647  0.62527  0.91362  1.0000
  O   O214      1.0  0.25459  0.62487  0.89267  1.0000
  H   H914      1.0  0.24836  0.64730  0.88028  1.0000
  H   H915      1.0  0.21419  0.68592  0.12421  1.0000
  O   O215      1.0  0.23822  0.68894  0.12502  1.0000
  H   H916      1.0  0.24371  0.71411  0.12612  1.0000
  H   H917      1.0  0.21915  0.66985  0.86134  1.0000
  O   O216      1.0  0.24071  0.67155  0.86756  1.0000
  H   H918      1.0  0.24304  0.69543  0.87645  1.0000
  H   H919      1.0  0.24833  0.76373  0.12910  1.0000
  O   O217      1.0  0.25505  0.74043  0.12722  1.0000
  H   H920      1.0  0.27705  0.73929  0.12178  1.0000
  H   H921      1.0  0.24191  0.77300  0.80648  1.0000
  O   O218      1.0  0.23610  0.75069  0.80751  1.0000
  H   H922      1.0  0.25394  0.73821  0.81126  1.0000
  H   H923      1.0  0.21628  0.73037  0.88331  1.0000
  O   O219      1.0  0.24076  0.72338  0.88259  1.0000
  H   H924      1.0  0.25542  0.73712  0.89144  1.0000
  H   H925      1.0  0.22806  0.80569  0.12890  1.0000
  O   O220      1.0  0.24639  0.79404  0.13256  1.0000
  H   H926      1.0  0.26641  0.80609  0.12870  1.0000
  H   H927      1.0  0.24239  0.82860  0.18667  1.0000
  O   O221      1.0  0.24329  0.80995  0.20202  1.0000
  H   H928      1.0  0.25137  0.79211  0.19138  1.0000
  H   H929      1.0  0.25961  0.83089  0.34401  1.0000
  O   O222      1.0  0.27301  0.82711  0.36227  1.0000
  H   H930      1.0  0.27198  0.80577  0.36886  1.0000
  H   H931      1.0  0.24436  0.84009  0.50353  1.0000
  O   O223      1.0  0.23612  0.81753  0.50231  1.0000
  H   H932      1.0  0.24819  0.80376  0.48930  1.0000
  H   H933      1.0  0.25078  0.82852  0.64611  1.0000
  O   O224      1.0  0.27081  0.81956  0.64277  1.0000
  H   H934      1.0  0.27343  0.80335  0.65848  1.0000
  H   H935      1.0  0.24657  0.82623  0.81419  1.0000
  O   O225      1.0  0.25015  0.80735  0.79998  1.0000
  H   H936      1.0  0.27209  0.80624  0.79650  1.0000
  H   H937      1.0  0.24428  0.83090  0.86360  1.0000
  O   O226      1.0  0.24320  0.81482  0.87999  1.0000
  H   H938      1.0  0.26416  0.80737  0.88399  1.0000
  H   H939      1.0  0.22555  0.87078  0.17813  1.0000
  O   O227      1.0  0.24095  0.85692  0.17014  1.0000
  H   H940      1.0  0.26150  0.86767  0.17256  1.0000
  H   H941      1.0  0.21418  0.87122  0.24285  1.0000
  O   O228      1.0  0.23480  0.87793  0.23829  1.0000
  H   H942      1.0  0.24563  0.85897  0.23346  1.0000
  H   H943      1.0  0.23237  0.86755  0.33868  1.0000
  O   O229      1.0  0.23405  0.85216  0.32021  1.0000
  H   H944      1.0  0.24339  0.86101  0.30171  1.0000
  H   H945      1.0  0.22342  0.90487  0.36901  1.0000
  O   O230      1.0  0.23142  0.88422  0.36748  1.0000
  H   H946      1.0  0.23468  0.87515  0.38893  1.0000
  H   H947      1.0  0.21865  0.85548  0.43105  1.0000
  O   O231      1.0  0.23832  0.86142  0.42250  1.0000
  H   H948      1.0  0.25016  0.84205  0.42153  1.0000
  H   H949      1.0  0.24241  0.88546  0.49606  1.0000
  O   O232      1.0  0.25320  0.86999  0.50792  1.0000
  H   H950      1.0  0.27796  0.87343  0.50688  1.0000
  H   H951      1.0  0.24633  0.86841  0.54635  1.0000
  O   O233      1.0  0.24767  0.86412  0.56950  1.0000
  H   H952      1.0  0.23574  0.84558  0.57367  1.0000
  H   H953      1.0  0.20797  0.86807  0.63146  1.0000
  O   O234      1.0  0.22900  0.87400  0.63482  1.0000
  H   H954      1.0  0.23725  0.88012  0.61453  1.0000
  H   H955      1.0  0.23957  0.87260  0.67654  1.0000
  O   O235      1.0  0.24298  0.85933  0.69482  1.0000
  H   H956      1.0  0.23051  0.83915  0.69015  1.0000
  H   H957      1.0  0.23608  0.87727  0.76370  1.0000
  O   O236      1.0  0.22447  0.86425  0.74990  1.0000
  H   H958      1.0  0.23217  0.86571  0.72767  1.0000
  H   H959      1.0  0.23057  0.86827  0.83128  1.0000
  O   O237      1.0  0.24762  0.85437  0.83247  1.0000
  H   H960      1.0  0.26880  0.86502  0.82544  1.0000
  H   H961      1.0  0.32436  0.13513  0.16108  1.0000
  O   O238      1.0  0.33097  0.13838  0.18240  1.0000
  H   H962      1.0  0.32084  0.15853  0.19066  1.0000
  H   H963      1.0  0.26987  0.12819  0.25106  1.0000
  O   O239      1.0  0.29392  0.12589  0.25498  1.0000
  H   H964      1.0  0.30419  0.11489  0.23835  1.0000
  H   H965      1.0  0.27579  0.13938  0.32123  1.0000
  O   O240      1.0  0.29843  0.13804  0.32262  1.0000
  H   H966      1.0  0.30488  0.12777  0.30356  1.0000
  H   H967      1.0  0.29048  0.16102  0.37816  1.0000
  O   O241      1.0  0.30535  0.14386  0.38238  1.0000
  H   H968      1.0  0.30596  0.13392  0.36135  1.0000
  H   H969      1.0  0.29449  0.13486  0.41151  1.0000
  O   O242      1.0  0.28684  0.13324  0.43488  1.0000
  H   H970      1.0  0.30281  0.12681  0.44888  1.0000
  H   H971      1.0  0.30412  0.10176  0.50163  1.0000
  O   O243      1.0  0.32162  0.11376  0.50780  1.0000
  H   H972      1.0  0.31610  0.12443  0.52784  1.0000
  H   H973      1.0  0.30476  0.14156  0.58604  1.0000
  O   O244      1.0  0.31259  0.14089  0.56244  1.0000
  H   H974      1.0  0.33844  0.14213  0.56664  1.0000
  H   H975      1.0  0.28482  0.15812  0.62614  1.0000
  O   O245      1.0  0.30071  0.14316  0.61771  1.0000
  H   H976      1.0  0.29792  0.12354  0.62807  1.0000
  H   H977      1.0  0.29817  0.12515  0.67910  1.0000
  O   O246      1.0  0.31474  0.13080  0.69246  1.0000
  H   H978      1.0  0.30672  0.13625  0.71493  1.0000
  H   H979      1.0  0.27102  0.13969  0.74399  1.0000
  O   O247      1.0  0.29397  0.14340  0.74283  1.0000
  H   H980      1.0  0.30116  0.15655  0.76038  1.0000
  H   H981      1.0  0.31253  0.11854  0.82583  1.0000
  O   O248      1.0  0.32848  0.12862  0.83765  1.0000
  H   H982      1.0  0.31993  0.14833  0.84589  1.0000
  H   H983      1.0  0.29278  0.19110  0.12329  1.0000
  O   O249      1.0  0.31482  0.19023  0.12760  1.0000
  H   H984      1.0  0.31815  0.20613  0.14339  1.0000
  H   H985      1.0  0.27847  0.18185  0.19167  1.0000
  O   O250      1.0  0.30576  0.18516  0.20242  1.0000
  H   H986      1.0  0.31487  0.20605  0.19394  1.0000
  H   H987      1.0  0.30439  0.15422  0.25891  1.0000
  O   O251      1.0  0.31247  0.17785  0.25775  1.0000
  H   H988      1.0  0.30859  0.18404  0.22668  1.0000
  H   H989      1.0  0.28153  0.18152  0.79709  1.0000
  O   O252      1.0  0.30555  0.18031  0.78979  1.0000
  H   H990      1.0  0.31533  0.20054  0.79485  1.0000
  H   H991      1.0  0.32598  0.18626  0.87334  1.0000
  O   O253      1.0  0.30828  0.18276  0.85996  1.0000
  H   H992      1.0  0.31024  0.19840  0.84362  1.0000
  H   H993      1.0  0.30811  0.25313  0.09104  1.0000
  O   O254      1.0  0.32163  0.26654  0.10239  1.0000
  H   H994      1.0  0.30862  0.28672  0.11447  1.0000
  H   H995      1.0  0.31094  0.25034  0.18838  1.0000
  O   O255      1.0  0.32352  0.23304  0.18170  1.0000
  H   H996      1.0  0.34464  0.24035  0.17479  1.0000
  H   H997      1.0  0.31439  0.24877  0.81359  1.0000
  O   O256      1.0  0.32870  0.23210  0.80977  1.0000
  H   H998      1.0  0.34425  0.24058  0.79500  1.0000
  H   H999      1.0  0.29683  0.23883  0.88599  1.0000
  O   O257      1.0  0.31688  0.24942  0.88499  1.0000
  H   H1000     1.0  0.31246  0.27292  0.88027  1.0000
  H   H1001     1.0  0.27208  0.30979  0.12916  1.0000
  O   O258      1.0  0.29534  0.30727  0.12675  1.0000
  H   H1002     1.0  0.30358  0.32931  0.12649  1.0000
  H   H1003     1.0  0.27951  0.30494  0.87309  1.0000
  O   O259      1.0  0.30314  0.30133  0.87243  1.0000
  H   H1004     1.0  0.31178  0.30929  0.85325  1.0000
  H   H1005     1.0  0.29022  0.37342  0.11456  1.0000
  O   O260      1.0  0.30841  0.36330  0.12877  1.0000
  H   H1006     1.0  0.30342  0.36901  0.15015  1.0000
  H   H1007     1.0  0.31617  0.35897  0.88106  1.0000
  O   O261      1.0  0.32860  0.37532  0.87261  1.0000
  H   H1008     1.0  0.31767  0.39637  0.87381  1.0000
  H   H1009     1.0  0.29860  0.43369  0.13373  1.0000
  O   O262      1.0  0.31749  0.44450  0.13000  1.0000
  H   H1010     1.0  0.31317  0.46669  0.12338  1.0000
  H   H1011     1.0  0.28213  0.42867  0.87345  1.0000
  O   O263      1.0  0.30543  0.42714  0.87232  1.0000
  H   H1012     1.0  0.31103  0.43560  0.85205  1.0000
  H   H1013     1.0  0.29046  0.49496  0.09621  1.0000
  O   O264      1.0  0.30773  0.49666  0.11019  1.0000
  H   H1014     1.0  0.30607  0.51784  0.12088  1.0000
  H   H1015     1.0  0.30660  0.48886  0.87661  1.0000
  O   O265      1.0  0.32144  0.50483  0.87309  1.0000
  H   H1016     1.0  0.31131  0.53158  0.87215  1.0000
  H   H1017     1.0  0.27866  0.55598  0.12940  1.0000
  O   O266      1.0  0.30185  0.54990  0.13342  1.0000
  H   H1018     1.0  0.30438  0.55179  0.15597  1.0000
  H   H1019     1.0  0.27594  0.56353  0.87175  1.0000
  O   O267      1.0  0.30331  0.55566  0.86984  1.0000
  H   H1020     1.0  0.31170  0.56426  0.85082  1.0000
  H   H1021     1.0  0.29994  0.60877  0.11616  1.0000
  O   O268      1.0  0.31486  0.62247  0.12499  1.0000
  H   H1022     1.0  0.30607  0.64447  0.12645  1.0000
  H   H1023     1.0  0.30880  0.61732  0.87900  1.0000
  O   O269      1.0  0.32400  0.63203  0.87251  1.0000
  H   H1024     1.0  0.31515  0.65558  0.87154  1.0000
  H   H1025     1.0  0.27126  0.67779  0.12882  1.0000
  O   O270      1.0  0.29381  0.67442  0.12991  1.0000
  H   H1026     1.0  0.30351  0.69479  0.12632  1.0000
  H   H1027     1.0  0.28184  0.68033  0.86365  1.0000
  O   O271      1.0  0.30306  0.68186  0.87001  1.0000
  H   H1028     1.0  0.30979  0.70451  0.87449  1.0000
  H   H1029     1.0  0.31655  0.73904  0.14508  1.0000
  O   O272      1.0  0.31261  0.73321  0.12250  1.0000
  H   H1030     1.0  0.33248  0.73493  0.11204  1.0000
  H   H1031     1.0  0.31251  0.73671  0.19300  1.0000
  O   O273      1.0  0.32407  0.74870  0.17776  1.0000
  H   H1032     1.0  0.31863  0.77389  0.17885  1.0000
  H   H1033     1.0  0.30966  0.77697  0.82070  1.0000
  O   O274      1.0  0.31710  0.75567  0.82475  1.0000
  H   H1034     1.0  0.32042  0.74414  0.80569  1.0000
  H   H1035     1.0  0.30896  0.75188  0.88885  1.0000
  O   O275      1.0  0.31943  0.73563  0.87746  1.0000
  H   H1036     1.0  0.31978  0.74353  0.85460  1.0000
  H   H1037     1.0  0.30529  0.81237  0.14902  1.0000
  O   O276      1.0  0.29634  0.81706  0.12718  1.0000
  H   H1038     1.0  0.30891  0.80750  0.11137  1.0000
  H   H1039     1.0  0.31195  0.81163  0.20083  1.0000
  O   O277      1.0  0.31804  0.80296  0.17820  1.0000
  H   H1040     1.0  0.34133  0.80818  0.17595  1.0000
  H   H1041     1.0  0.29751  0.81242  0.24587  1.0000
  O   O278      1.0  0.31016  0.82230  0.23000  1.0000
  H   H1042     1.0  0.31339  0.84518  0.23367  1.0000
  H   H1043     1.0  0.30156  0.83452  0.81923  1.0000
  O   O279      1.0  0.30792  0.81255  0.82006  1.0000
  H   H1044     1.0  0.33058  0.81332  0.81356  1.0000
  H   H1045     1.0  0.30404  0.80329  0.85739  1.0000
  O   O280      1.0  0.30101  0.79768  0.87995  1.0000
  H   H1046     1.0  0.31973  0.80380  0.89052  1.0000
  H   H1047     1.0  0.30013  0.88307  0.20165  1.0000
  O   O281      1.0  0.29186  0.88144  0.18010  1.0000
  H   H1048     1.0  0.30888  0.87777  0.16613  1.0000
  H   H1049     1.0  0.31132  0.88342  0.25870  1.0000
  O   O282      1.0  0.31950  0.87903  0.23757  1.0000
  H   H1050     1.0  0.34214  0.88236  0.23845  1.0000
  H   H1051     1.0  0.30743  0.87543  0.32023  1.0000
  O   O283      1.0  0.31027  0.87154  0.29775  1.0000
  H   H1052     1.0  0.32756  0.85763  0.29643  1.0000
  H   H1053     1.0  0.30647  0.88032  0.38152  1.0000
  O   O284      1.0  0.31255  0.86663  0.36482  1.0000
  H   H1054     1.0  0.29738  0.84872  0.36442  1.0000
  H   H1055     1.0  0.30686  0.87196  0.44868  1.0000
  O   O285      1.0  0.31923  0.85906  0.43517  1.0000
  H   H1056     1.0  0.30923  0.83872  0.43386  1.0000
  H   H1057     1.0  0.30732  0.87053  0.53567  1.0000
  O   O286      1.0  0.30574  0.87643  0.51273  1.0000
  H   H1058     1.0  0.32550  0.87045  0.50282  1.0000
  H   H1059     1.0  0.28183  0.86086  0.57151  1.0000
  O   O287      1.0  0.30462  0.85744  0.56804  1.0000
  H   H1060     1.0  0.30664  0.83491  0.56812  1.0000
  H   H1061     1.0  0.30885  0.86538  0.61315  1.0000
  O   O288      1.0  0.31034  0.85935  0.63495  1.0000
  H   H1062     1.0  0.29470  0.84272  0.63895  1.0000
  H   H1063     1.0  0.27489  0.86308  0.70550  1.0000
  O   O289      1.0  0.29623  0.86909  0.71234  1.0000
  H   H1064     1.0  0.30918  0.87040  0.69415  1.0000
  H   H1065     1.0  0.30726  0.87087  0.74315  1.0000
  O   O290      1.0  0.31707  0.87410  0.76488  1.0000
  H   H1066     1.0  0.33815  0.88285  0.76337  1.0000
  H   H1067     1.0  0.30528  0.87310  0.78978  1.0000
  O   O291      1.0  0.29621  0.87159  0.81519  1.0000
  H   H1068     1.0  0.30910  0.88320  0.82911  1.0000
  H   H1069     1.0  0.36055  0.12771  0.19031  1.0000
  O   O292      1.0  0.38184  0.12103  0.19767  1.0000
  H   H1070     1.0  0.40389  0.12673  0.18401  1.0000
  H   H1071     1.0  0.38148  0.11495  0.22098  1.0000
  O   O293      1.0  0.37730  0.10592  0.25255  1.0000
  H   H1072     1.0  0.37160  0.08481  0.25618  1.0000
  H   H1073     1.0  0.37893  0.11741  0.27373  1.0000
  O   O294      1.0  0.38200  0.13336  0.30250  1.0000
  H   H1074     1.0  0.37411  0.15385  0.29868  1.0000
  H   H1075     1.0  0.36912  0.12490  0.35919  1.0000
  O   O295      1.0  0.37961  0.13334  0.37721  1.0000
  H   H1076     1.0  0.40228  0.12812  0.37586  1.0000
  H   H1077     1.0  0.37015  0.13448  0.40955  1.0000
  O   O296      1.0  0.36551  0.13841  0.43263  1.0000
  H   H1078     1.0  0.34997  0.15402  0.43375  1.0000
  H   H1079     1.0  0.35706  0.11270  0.49519  1.0000
  O   O297      1.0  0.37714  0.11611  0.48509  1.0000
  H   H1080     1.0  0.37387  0.12436  0.46299  1.0000
  H   H1081     1.0  0.37198  0.13465  0.59856  1.0000
  O   O298      1.0  0.36457  0.14018  0.57412  1.0000
  H   H1082     1.0  0.38051  0.14196  0.55883  1.0000
  H   H1083     1.0  0.37273  0.13655  0.64401  1.0000
  O   O299      1.0  0.38222  0.12860  0.62484  1.0000
  H   H1084     1.0  0.40633  0.12918  0.62652  1.0000
  H   H1085     1.0  0.34481  0.13839  0.68599  1.0000
  O   O300      1.0  0.36615  0.14844  0.68505  1.0000
  H   H1086     1.0  0.36629  0.16185  0.70366  1.0000
  H   H1087     1.0  0.37038  0.13895  0.74630  1.0000
  O   O301      1.0  0.38433  0.12347  0.75518  1.0000
  H   H1088     1.0  0.38108  0.12328  0.77881  1.0000
  H   H1089     1.0  0.36026  0.12905  0.82455  1.0000
  O   O302      1.0  0.37957  0.13337  0.81245  1.0000
  H   H1090     1.0  0.40140  0.13183  0.82394  1.0000
  H   H1091     1.0  0.35365  0.17921  0.11386  1.0000
  O   O303      1.0  0.37481  0.18524  0.11001  1.0000
  H   H1092     1.0  0.37390  0.20790  0.10590  1.0000
  H   H1093     1.0  0.37617  0.17945  0.17926  1.0000
  O   O304      1.0  0.38571  0.19704  0.18914  1.0000
  H   H1094     1.0  0.38146  0.21792  0.17646  1.0000
  H   H1095     1.0  0.38700  0.18841  0.24407  1.0000
  O   O305      1.0  0.40505  0.18024  0.25495  1.0000
  H   H1096     1.0  0.42928  0.18602  0.22926  1.0000
  H   H1097     1.0  0.33818  0.18579  0.73906  1.0000
  O   O306      1.0  0.35868  0.17782  0.74006  1.0000
  H   H1098     1.0  0.36743  0.18332  0.76129  1.0000
  H   H1099     1.0  0.37891  0.16115  0.80354  1.0000
  O   O307      1.0  0.37949  0.18531  0.79508  1.0000
  H   H1100     1.0  0.36636  0.19704  0.80887  1.0000
  H   H1101     1.0  0.37102  0.18638  0.89878  1.0000
  O   O308      1.0  0.37573  0.18601  0.87644  1.0000
  H   H1102     1.0  0.40184  0.18852  0.87550  1.0000
  H   H1103     1.0  0.34607  0.25582  0.10408  1.0000
  O   O309      1.0  0.37042  0.24461  0.10749  1.0000
  H   H1104     1.0  0.38633  0.25554  0.09637  1.0000
  H   H1105     1.0  0.38740  0.26103  0.17123  1.0000
  O   O310      1.0  0.37500  0.24452  0.16259  1.0000
  H   H1106     1.0  0.37440  0.24519  0.13615  1.0000
  H   H1107     1.0  0.36242  0.26826  0.75638  1.0000
  O   O311      1.0  0.37032  0.25417  0.77247  1.0000
  H   H1108     1.0  0.38459  0.24034  0.76194  1.0000
  H   H1109     1.0  0.38389  0.25521  0.81357  1.0000
  O   O312      1.0  0.39346  0.24703  0.83241  1.0000
  H   H1110     1.0  0.41094  0.23341  0.82435  1.0000
  H   H1111     1.0  0.34207  0.23986  0.88349  1.0000
  O   O313      1.0  0.36813  0.23461  0.88242  1.0000
  H   H1112     1.0  0.37825  0.23880  0.86046  1.0000
  H   H1113     1.0  0.35792  0.30493  0.12108  1.0000
  O   O314      1.0  0.37717  0.31337  0.12752  1.0000
  H   H1114     1.0  0.37525  0.33687  0.12860  1.0000
  H   H1115     1.0  0.37853  0.29001  0.84612  1.0000
  O   O315      1.0  0.36587  0.30848  0.84745  1.0000
  H   H1116     1.0  0.36214  0.31201  0.86950  1.0000
  H   H1117     1.0  0.34313  0.36696  0.12669  1.0000
  O   O316      1.0  0.36566  0.36822  0.13004  1.0000
  H   H1118     1.0  0.37107  0.39046  0.12845  1.0000
  H   H1119     1.0  0.35806  0.37691  0.86367  1.0000
  O   O317      1.0  0.37965  0.38323  0.85491  1.0000
  H   H1120     1.0  0.38102  0.40616  0.85683  1.0000
  H   H1121     1.0  0.34767  0.43388  0.12834  1.0000
  O   O318      1.0  0.37011  0.42723  0.12276  1.0000
  H   H1122     1.0  0.37202  0.43079  0.10048  1.0000
  H   H1123     1.0  0.36715  0.43876  0.88918  1.0000
  O   O319      1.0  0.38186  0.44185  0.87262  1.0000
  H   H1124     1.0  0.37779  0.46396  0.86354  1.0000
  H   H1125     1.0  0.35552  0.49740  0.11583  1.0000
  O   O320      1.0  0.37116  0.50756  0.12804  1.0000
  H   H1126     1.0  0.36776  0.53192  0.12693  1.0000
  H   H1127     1.0  0.34324  0.49851  0.86329  1.0000
  O   O321      1.0  0.37047  0.49384  0.85249  1.0000
  H   H1128     1.0  0.38298  0.50968  0.86185  1.0000
  H   H1129     1.0  0.33610  0.56141  0.12487  1.0000
  O   O322      1.0  0.35870  0.56079  0.12488  1.0000
  H   H1130     1.0  0.36788  0.58160  0.12643  1.0000
  H   H1131     1.0  0.36637  0.56649  0.88848  1.0000
  O   O323      1.0  0.38433  0.57322  0.87743  1.0000
  H   H1132     1.0  0.38106  0.59557  0.86853  1.0000
  H   H1133     1.0  0.34826  0.62072  0.12409  1.0000
  O   O324      1.0  0.37122  0.62008  0.12704  1.0000
  H   H1134     1.0  0.37820  0.64180  0.12903  1.0000
  H   H1135     1.0  0.34902  0.62619  0.86269  1.0000
  O   O325      1.0  0.37424  0.62498  0.85590  1.0000
  H   H1136     1.0  0.38079  0.64560  0.86380  1.0000
  H   H1137     1.0  0.38140  0.69527  0.12448  1.0000
  O   O326      1.0  0.39123  0.67661  0.13250  1.0000
  H   H1138     1.0  0.41350  0.68016  0.13079  1.0000
  H   H1139     1.0  0.36483  0.67980  0.89184  1.0000
  O   O327      1.0  0.37958  0.68161  0.87517  1.0000
  H   H1140     1.0  0.38050  0.70589  0.86938  1.0000
  H   H1141     1.0  0.38575  0.74953  0.10083  1.0000
  O   O328      1.0  0.37273  0.73831  0.11501  1.0000
  H   H1142     1.0  0.37676  0.74633  0.13672  1.0000
  H   H1143     1.0  0.35410  0.74928  0.17736  1.0000
  O   O329      1.0  0.37736  0.75524  0.17256  1.0000
  H   H1144     1.0  0.39169  0.74217  0.18401  1.0000
  H   H1145     1.0  0.36676  0.73542  0.75858  1.0000
  O   O330      1.0  0.37019  0.75300  0.77236  1.0000
  H   H1146     1.0  0.36480  0.77163  0.76080  1.0000
  H   H1147     1.0  0.38461  0.75725  0.80476  1.0000
  O   O331      1.0  0.39122  0.76796  0.82459  1.0000
  H   H1148     1.0  0.41182  0.78072  0.81912  1.0000
  H   H1149     1.0  0.36672  0.74432  0.88094  1.0000
  O   O332      1.0  0.38431  0.73624  0.86975  1.0000
  H   H1150     1.0  0.38727  0.75059  0.84863  1.0000
  H   H1151     1.0  0.37386  0.83848  0.11096  1.0000
  O   O333      1.0  0.38197  0.81988  0.12006  1.0000
  H   H1152     1.0  0.37710  0.81881  0.14370  1.0000
  H   H1153     1.0  0.37717  0.81860  0.19649  1.0000
  O   O334      1.0  0.37254  0.80989  0.17508  1.0000
  H   H1154     1.0  0.37808  0.78620  0.17484  1.0000
  H   H1155     1.0  0.37836  0.81080  0.24590  1.0000
  O   O335      1.0  0.38644  0.82461  0.23014  1.0000
  H   H1156     1.0  0.40910  0.81705  0.22229  1.0000
  H   H1157     1.0  0.37660  0.83206  0.73627  1.0000
  O   O336      1.0  0.37747  0.81475  0.75240  1.0000
  H   H1158     1.0  0.39667  0.80408  0.74859  1.0000
  H   H1159     1.0  0.36716  0.81566  0.78380  1.0000
  O   O337      1.0  0.36125  0.81478  0.80732  1.0000
  H   H1160     1.0  0.37200  0.79618  0.81677  1.0000
  H   H1161     1.0  0.36734  0.81637  0.86102  1.0000
  O   O338      1.0  0.36592  0.80991  0.88269  1.0000
  H   H1162     1.0  0.38665  0.81092  0.89077  1.0000
  H   H1163     1.0  0.36867  0.89698  0.18620  1.0000
  O   O339      1.0  0.36817  0.87911  0.17256  1.0000
  H   H1164     1.0  0.38866  0.87049  0.17321  1.0000
  H   H1165     1.0  0.37573  0.87517  0.26933  1.0000
  O   O340      1.0  0.37840  0.87818  0.24588  1.0000
  H   H1166     1.0  0.38039  0.85528  0.23798  1.0000
  H   H1167     1.0  0.37135  0.86538  0.32127  1.0000
  O   O341      1.0  0.37747  0.85944  0.30031  1.0000
  H   H1168     1.0  0.40071  0.86019  0.30050  1.0000
  H   H1169     1.0  0.34732  0.86331  0.36657  1.0000
  O   O342      1.0  0.36972  0.86211  0.37121  1.0000
  H   H1170     1.0  0.37204  0.86268  0.39416  1.0000
  H   H1171     1.0  0.35483  0.86022  0.43565  1.0000
  O   O343      1.0  0.37737  0.85884  0.43265  1.0000
  H   H1172     1.0  0.38296  0.83689  0.43351  1.0000
  H   H1173     1.0  0.37355  0.86297  0.48333  1.0000
  O   O344      1.0  0.35896  0.85929  0.50010  1.0000
  H   H1174     1.0  0.36924  0.86067  0.52036  1.0000
  H   H1175     1.0  0.34891  0.86772  0.57380  1.0000
  O   O345      1.0  0.37039  0.86380  0.56991  1.0000
  H   H1176     1.0  0.37520  0.84174  0.57392  1.0000
  H   H1177     1.0  0.34005  0.86231  0.64958  1.0000
  O   O346      1.0  0.36097  0.86415  0.66004  1.0000
  H   H1178     1.0  0.37638  0.86786  0.64444  1.0000
  H   H1179     1.0  0.37039  0.86068  0.69407  1.0000
  O   O347      1.0  0.38195  0.85935  0.71486  1.0000
  H   H1180     1.0  0.40446  0.86260  0.70771  1.0000
  H   H1181     1.0  0.37592  0.87939  0.73896  1.0000
  O   O348      1.0  0.37045  0.89246  0.75931  1.0000
  H   H1182     1.0  0.37471  0.91407  0.75606  1.0000
  H   H1183     1.0  0.37390  0.88023  0.79540  1.0000
  O   O349      1.0  0.37589  0.87029  0.81632  1.0000
  H   H1184     1.0  0.36770  0.84857  0.81440  1.0000
  H   H1185     1.0  0.42708  0.15384  0.15376  1.0000
  O   O350      1.0  0.42606  0.13350  0.16985  1.0000
  H   H1186     1.0  0.44542  0.12719  0.17841  1.0000
  H   H1187     1.0  0.43761  0.12941  0.25125  1.0000
  O   O351      1.0  0.45829  0.13348  0.24502  1.0000
  H   H1188     1.0  0.46420  0.15542  0.24949  1.0000
  H   H1189     1.0  0.40452  0.13508  0.30902  1.0000
  O   O352      1.0  0.43527  0.13841  0.32026  1.0000
  H   H1190     1.0  0.44168  0.15950  0.31689  1.0000
  H   H1191     1.0  0.43611  0.09843  0.37421  1.0000
  O   O353      1.0  0.43519  0.12073  0.37508  1.0000
  H   H1192     1.0  0.43658  0.13232  0.34391  1.0000
  H   H1193     1.0  0.43638  0.15454  0.43383  1.0000
  O   O354      1.0  0.44685  0.13584  0.42736  1.0000
  H   H1194     1.0  0.44102  0.12882  0.40219  1.0000
  H   H1195     1.0  0.40233  0.12177  0.49995  1.0000
  O   O355      1.0  0.42501  0.12670  0.50896  1.0000
  H   H1196     1.0  0.43857  0.12224  0.49175  1.0000
  H   H1197     1.0  0.44045  0.12717  0.53534  1.0000
  O   O356      1.0  0.45570  0.12835  0.55532  1.0000
  H   H1198     1.0  0.44451  0.13205  0.57442  1.0000
  H   H1199     1.0  0.44320  0.10795  0.63076  1.0000
  O   O357      1.0  0.43701  0.12928  0.63232  1.0000
  H   H1200     1.0  0.43286  0.13452  0.65804  1.0000
  H   H1201     1.0  0.40021  0.13953  0.68480  1.0000
  O   O358      1.0  0.42323  0.13825  0.68491  1.0000
  H   H1202     1.0  0.43058  0.13938  0.70855  1.0000
  H   H1203     1.0  0.41332  0.13041  0.74795  1.0000
  O   O359      1.0  0.43511  0.13825  0.73989  1.0000
  H   H1204     1.0  0.43950  0.15812  0.74916  1.0000
  H   H1205     1.0  0.42932  0.15216  0.85110  1.0000
  O   O360      1.0  0.42846  0.13599  0.83527  1.0000
  H   H1206     1.0  0.44989  0.13418  0.82435  1.0000
  H   H1207     1.0  0.43160  0.19855  0.13816  1.0000
  O   O361      1.0  0.42550  0.17610  0.13476  1.0000
  H   H1208     1.0  0.40494  0.17670  0.12362  1.0000
  H   H1209     1.0  0.41330  0.19433  0.19596  1.0000
  O   O362      1.0  0.43522  0.19256  0.20762  1.0000
  H   H1210     1.0  0.45748  0.18859  0.19642  1.0000
  H   H1211     1.0  0.40933  0.19811  0.79964  1.0000
  O   O363      1.0  0.42825  0.20979  0.80766  1.0000
  H   H1212     1.0  0.43931  0.19602  0.82133  1.0000
  H   H1213     1.0  0.43879  0.21584  0.87532  1.0000
  O   O364      1.0  0.42982  0.18981  0.87554  1.0000
  H   H1214     1.0  0.43860  0.17990  0.89370  1.0000
  H   H1215     1.0  0.43397  0.25234  0.12915  1.0000
  O   O365      1.0  0.43982  0.23249  0.13996  1.0000
  H   H1216     1.0  0.45499  0.23795  0.15567  1.0000
  H   H1217     1.0  0.44808  0.26697  0.87989  1.0000
  O   O366      1.0  0.45155  0.23952  0.87483  1.0000
  H   H1218     1.0  0.46381  0.24058  0.85511  1.0000
  H   H1219     1.0  0.40582  0.29710  0.12073  1.0000
  O   O367      1.0  0.42582  0.28642  0.11515  1.0000
  H   H1220     1.0  0.44021  0.30332  0.11551  1.0000
  H   H1221     1.0  0.43704  0.30742  0.88128  1.0000
  O   O368      1.0  0.45310  0.29244  0.88300  1.0000
  H   H1222     1.0  0.47740  0.30278  0.88115  1.0000
  H   H1223     1.0  0.41554  0.36276  0.12645  1.0000
  O   O369      1.0  0.43537  0.35311  0.12744  1.0000
  H   H1224     1.0  0.45053  0.36901  0.12411  1.0000
  H   H1225     1.0  0.41094  0.37392  0.86594  1.0000
  O   O370      1.0  0.43278  0.37032  0.87253  1.0000
  H   H1226     1.0  0.43631  0.38206  0.89142  1.0000
  H   H1227     1.0  0.40376  0.43613  0.13625  1.0000
  O   O371      1.0  0.42583  0.44222  0.14002  1.0000
  H   H1228     1.0  0.42865  0.47294  0.13433  1.0000
  H   H1229     1.0  0.41841  0.43839  0.88343  1.0000
  O   O372      1.0  0.43977  0.44251  0.88993  1.0000
  H   H1230     1.0  0.44188  0.46534  0.88840  1.0000
  H   H1231     1.0  0.39883  0.50048  0.12660  1.0000
  O   O373      1.0  0.42337  0.49609  0.12752  1.0000
  H   H1232     1.0  0.43566  0.51572  0.12604  1.0000
  H   H1233     1.0  0.43642  0.49985  0.85253  1.0000
  O   O374      1.0  0.44401  0.49980  0.87380  1.0000
  H   H1234     1.0  0.44088  0.52152  0.88225  1.0000
  H   H1235     1.0  0.43277  0.55430  0.15169  1.0000
  O   O375      1.0  0.43976  0.55062  0.13041  1.0000
  H   H1236     1.0  0.43963  0.57136  0.12039  1.0000
  H   H1237     1.0  0.41303  0.56297  0.88425  1.0000
  O   O376      1.0  0.43512  0.55551  0.89006  1.0000
  H   H1238     1.0  0.43942  0.56172  0.91134  1.0000
  H   H1239     1.0  0.40740  0.61127  0.11680  1.0000
  O   O377      1.0  0.42998  0.60925  0.11712  1.0000
  H   H1240     1.0  0.43835  0.62579  0.12969  1.0000
  H   H1241     1.0  0.43226  0.61354  0.86854  1.0000
  O   O378      1.0  0.44915  0.62706  0.87242  1.0000
  H   H1242     1.0  0.44357  0.65117  0.87372  1.0000
  H   H1243     1.0  0.45070  0.68637  0.09962  1.0000
  O   O379      1.0  0.44897  0.68923  0.12205  1.0000
  H   H1244     1.0  0.44714  0.71243  0.12611  1.0000
  H   H1245     1.0  0.41226  0.68021  0.87797  1.0000
  O   O380      1.0  0.43515  0.67914  0.87508  1.0000
  H   H1246     1.0  0.44376  0.69982  0.87153  1.0000
  H   H1247     1.0  0.43898  0.76770  0.12754  1.0000
  O   O381      1.0  0.44449  0.74577  0.13486  1.0000
  H   H1248     1.0  0.44953  0.74689  0.15679  1.0000
  H   H1249     1.0  0.42172  0.73953  0.87626  1.0000
  O   O382      1.0  0.44410  0.73841  0.87261  1.0000
  H   H1250     1.0  0.44908  0.75691  0.86105  1.0000
  H   H1251     1.0  0.41240  0.80894  0.11825  1.0000
  O   O383      1.0  0.43426  0.80062  0.12170  1.0000
  H   H1252     1.0  0.44300  0.81290  0.13834  1.0000
  H   H1253     1.0  0.43583  0.83126  0.19348  1.0000
  O   O384      1.0  0.43317  0.81221  0.20756  1.0000
  H   H1254     1.0  0.45163  0.80823  0.22040  1.0000
  H   H1255     1.0  0.43023  0.82385  0.81443  1.0000
  O   O385      1.0  0.43296  0.79982  0.81007  1.0000
  H   H1256     1.0  0.45425  0.79448  0.81125  1.0000
  H   H1257     1.0  0.43443  0.83320  0.86353  1.0000
  O   O386      1.0  0.43527  0.81747  0.87990  1.0000
  H   H1258     1.0  0.45652  0.81623  0.88604  1.0000
  H   H1259     1.0  0.45079  0.87077  0.16880  1.0000
  O   O387      1.0  0.43538  0.86195  0.18217  1.0000
  H   H1260     1.0  0.43513  0.87286  0.20417  1.0000
  H   H1261     1.0  0.40891  0.88429  0.24041  1.0000
  O   O388      1.0  0.43268  0.88159  0.23513  1.0000
  H   H1262     1.0  0.43967  0.86531  0.24895  1.0000
  H   H1263     1.0  0.45003  0.87813  0.29666  1.0000
  O   O389      1.0  0.43305  0.86672  0.30506  1.0000
  H   H1264     1.0  0.43321  0.86804  0.32894  1.0000
  H   H1265     1.0  0.40152  0.86798  0.36357  1.0000
  O   O390      1.0  0.42454  0.87068  0.36120  1.0000
  H   H1266     1.0  0.43454  0.86270  0.37957  1.0000
  H   H1267     1.0  0.41698  0.87085  0.43651  1.0000
  O   O391      1.0  0.43729  0.87408  0.44509  1.0000
  H   H1268     1.0  0.43564  0.87732  0.46858  1.0000
  H   H1269     1.0  0.43220  0.91012  0.49959  1.0000
  O   O392      1.0  0.43293  0.88791  0.50105  1.0000
  H   H1270     1.0  0.43029  0.88279  0.52427  1.0000
  H   H1271     1.0  0.40181  0.87769  0.56369  1.0000
  O   O393      1.0  0.42353  0.88146  0.55759  1.0000
  H   H1272     1.0  0.43637  0.87504  0.57476  1.0000
  H   H1273     1.0  0.43006  0.90555  0.62831  1.0000
  O   O394      1.0  0.43649  0.88520  0.63475  1.0000
  H   H1274     1.0  0.45930  0.88426  0.63283  1.0000
  H   H1275     1.0  0.42964  0.87746  0.67150  1.0000
  O   O395      1.0  0.43169  0.87147  0.69391  1.0000
  H   H1276     1.0  0.45361  0.86586  0.69615  1.0000
  H   H1277     1.0  0.44122  0.87385  0.74443  1.0000
  O   O396      1.0  0.45374  0.86906  0.76248  1.0000
  H   H1278     1.0  0.46432  0.84893  0.75880  1.0000
  H   H1279     1.0  0.40611  0.86316  0.82044  1.0000
  O   O397      1.0  0.42839  0.85429  0.81989  1.0000
  H   H1280     1.0  0.43874  0.86368  0.80186  1.0000
  H   H1281     1.0  0.50020  0.14984  0.19098  1.0000
  O   O398      1.0  0.50471  0.12849  0.18501  1.0000
  H   H1282     1.0  0.52693  0.12744  0.17795  1.0000
  H   H1283     1.0  0.48755  0.11967  0.24712  1.0000
  O   O399      1.0  0.50942  0.11327  0.25246  1.0000
  H   H1284     1.0  0.51355  0.09459  0.24089  1.0000
  H   H1285     1.0  0.48025  0.12961  0.31157  1.0000
  O   O400      1.0  0.50229  0.12830  0.31233  1.0000
  H   H1286     1.0  0.50803  0.12023  0.29131  1.0000
  H   H1287     1.0  0.47826  0.12474  0.37622  1.0000
  O   O401      1.0  0.50011  0.12592  0.37979  1.0000
  H   H1288     1.0  0.50953  0.12451  0.35904  1.0000
  H   H1289     1.0  0.47115  0.13261  0.43609  1.0000
  O   O402      1.0  0.49768  0.12828  0.44216  1.0000
  H   H1290     1.0  0.50814  0.12497  0.42206  1.0000
  H   H1291     1.0  0.50387  0.12918  0.51079  1.0000
  O   O403      1.0  0.51608  0.11861  0.49499  1.0000
  H   H1292     1.0  0.50746  0.12273  0.46382  1.0000
  H   H1293     1.0  0.47992  0.14441  0.55173  1.0000
  O   O404      1.0  0.50062  0.15721  0.54669  1.0000
  H   H1294     1.0  0.51919  0.14916  0.55581  1.0000
  H   H1295     1.0  0.48468  0.14694  0.62630  1.0000
  O   O405      1.0  0.50222  0.15048  0.63983  1.0000
  H   H1296     1.0  0.49589  0.13484  0.66535  1.0000
  H   H1297     1.0  0.46641  0.11896  0.68491  1.0000
  O   O406      1.0  0.48836  0.12096  0.68510  1.0000
  H   H1298     1.0  0.49660  0.12268  0.71185  1.0000
  H   H1299     1.0  0.50395  0.15175  0.74151  1.0000
  O   O407      1.0  0.50173  0.12663  0.73826  1.0000
  H   H1300     1.0  0.48484  0.11961  0.75120  1.0000
  H   H1301     1.0  0.48921  0.15794  0.81433  1.0000
  O   O408      1.0  0.47911  0.13576  0.81250  1.0000
  H   H1302     1.0  0.49334  0.11996  0.81852  1.0000
  H   H1303     1.0  0.47828  0.18390  0.11816  1.0000
  O   O409      1.0  0.49518  0.19246  0.12987  1.0000
  H   H1304     1.0  0.49876  0.21654  0.12352  1.0000
  H   H1305     1.0  0.48827  0.21210  0.19058  1.0000
  O   O410      1.0  0.48384  0.19033  0.18515  1.0000
  H   H1306     1.0  0.48811  0.18924  0.16079  1.0000
  H   H1307     1.0  0.47289  0.20505  0.24859  1.0000
  O   O411      1.0  0.47916  0.18555  0.25756  1.0000
  H   H1308     1.0  0.49955  0.18862  0.26641  1.0000
  H   H1309     1.0  0.50055  0.20007  0.75121  1.0000
  O   O412      1.0  0.50714  0.18055  0.74000  1.0000
  H   H1310     1.0  0.52574  0.18634  0.72876  1.0000
  H   H1311     1.0  0.49266  0.20520  0.81602  1.0000
  O   O413      1.0  0.50233  0.18534  0.82003  1.0000
  H   H1312     1.0  0.52662  0.18674  0.81401  1.0000
  H   H1313     1.0  0.50664  0.18441  0.85873  1.0000
  O   O414      1.0  0.51614  0.18518  0.87998  1.0000
  H   H1314     1.0  0.50877  0.20406  0.89261  1.0000
  H   H1315     1.0  0.50477  0.26637  0.12619  1.0000
  O   O415      1.0  0.50454  0.24447  0.11447  1.0000
  H   H1316     1.0  0.49887  0.24775  0.09293  1.0000
  H   H1317     1.0  0.46650  0.26216  0.19868  1.0000
  O   O416      1.0  0.48149  0.24965  0.18758  1.0000
  H   H1318     1.0  0.49914  0.26281  0.18378  1.0000
  H   H1319     1.0  0.48928  0.24823  0.74596  1.0000
  O   O417      1.0  0.49999  0.23440  0.76001  1.0000
  H   H1320     1.0  0.51570  0.24615  0.77090  1.0000
  H   H1321     1.0  0.47330  0.25751  0.81157  1.0000
  O   O418      1.0  0.48602  0.24705  0.82735  1.0000
  H   H1322     1.0  0.50348  0.26027  0.83122  1.0000
  H   H1323     1.0  0.47679  0.23646  0.89542  1.0000
  O   O419      1.0  0.49772  0.23208  0.90509  1.0000
  H   H1324     1.0  0.50300  0.24561  0.92204  1.0000
  H   H1325     1.0  0.49474  0.31069  0.13612  1.0000
  O   O420      1.0  0.50927  0.29402  0.13754  1.0000
  H   H1326     1.0  0.53130  0.30160  0.13111  1.0000
  H   H1327     1.0  0.49642  0.33882  0.87062  1.0000
  O   O421      1.0  0.50024  0.31649  0.87744  1.0000
  H   H1328     1.0  0.52300  0.31269  0.88087  1.0000
  H   H1329     1.0  0.49842  0.39179  0.12450  1.0000
  O   O422      1.0  0.50317  0.36922  0.12790  1.0000
  H   H1330     1.0  0.52646  0.36991  0.12824  1.0000
  H   H1331     1.0  0.46418  0.36674  0.85706  1.0000
  O   O423      1.0  0.48711  0.36837  0.85550  1.0000
  H   H1332     1.0  0.49059  0.39151  0.86284  1.0000
  H   H1333     1.0  0.49906  0.44920  0.12600  1.0000
  O   O424      1.0  0.50458  0.42752  0.11993  1.0000
  H   H1334     1.0  0.52418  0.42889  0.10951  1.0000
  H   H1335     1.0  0.46778  0.43029  0.87839  1.0000
  O   O425      1.0  0.48850  0.42220  0.87019  1.0000
  H   H1336     1.0  0.50560  0.43291  0.87930  1.0000
  H   H1337     1.0  0.49977  0.50716  0.12656  1.0000
  O   O426      1.0  0.50450  0.48624  0.13504  1.0000
  H   H1338     1.0  0.52684  0.48600  0.13834  1.0000
  H   H1339     1.0  0.48441  0.49352  0.86171  1.0000
  O   O427      1.0  0.50218  0.50315  0.85234  1.0000
  H   H1340     1.0  0.50037  0.52641  0.85664  1.0000
  H   H1341     1.0  0.49658  0.56240  0.12598  1.0000
  O   O428      1.0  0.50492  0.54328  0.11743  1.0000
  H   H1342     1.0  0.52671  0.54654  0.11392  1.0000
  H   H1343     1.0  0.46875  0.55775  0.87133  1.0000
  O   O429      1.0  0.48968  0.55669  0.86315  1.0000
  H   H1344     1.0  0.49517  0.57740  0.85562  1.0000
  H   H1345     1.0  0.49096  0.61560  0.11598  1.0000
  O   O430      1.0  0.50001  0.60747  0.13489  1.0000
  H   H1346     1.0  0.52217  0.61128  0.13320  1.0000
  H   H1347     1.0  0.47517  0.62095  0.86204  1.0000
  O   O431      1.0  0.49801  0.61714  0.85263  1.0000
  H   H1348     1.0  0.51403  0.61644  0.86818  1.0000
  H   H1349     1.0  0.49561  0.67528  0.12616  1.0000
  O   O432      1.0  0.51387  0.68157  0.11503  1.0000
  H   H1350     1.0  0.51029  0.70321  0.10861  1.0000
  H   H1351     1.0  0.49827  0.66553  0.86882  1.0000
  O   O433      1.0  0.51391  0.67657  0.88001  1.0000
  H   H1352     1.0  0.50862  0.69898  0.88424  1.0000
  H   H1353     1.0  0.49929  0.75443  0.09363  1.0000
  O   O434      1.0  0.50678  0.74094  0.11006  1.0000
  H   H1354     1.0  0.49381  0.74487  0.12833  1.0000
  H   H1355     1.0  0.47260  0.73904  0.19615  1.0000
  O   O435      1.0  0.48851  0.74807  0.18287  1.0000
  H   H1356     1.0  0.50739  0.73685  0.18832  1.0000
  H   H1357     1.0  0.49222  0.74240  0.75638  1.0000
  O   O436      1.0  0.50241  0.76059  0.76458  1.0000
  H   H1358     1.0  0.52016  0.76358  0.75117  1.0000
  H   H1359     1.0  0.48087  0.73193  0.81881  1.0000
  O   O437      1.0  0.49990  0.74063  0.82734  1.0000
  H   H1360     1.0  0.51641  0.73169  0.81451  1.0000
  H   H1361     1.0  0.49210  0.74188  0.89646  1.0000
  O   O438      1.0  0.50914  0.73339  0.88488  1.0000
  H   H1362     1.0  0.50518  0.73778  0.86184  1.0000
  H   H1363     1.0  0.50053  0.82434  0.10743  1.0000
  O   O439      1.0  0.51608  0.81483  0.12004  1.0000
  H   H1364     1.0  0.50875  0.81309  0.14217  1.0000
  H   H1365     1.0  0.49162  0.81805  0.19356  1.0000
  O   O440      1.0  0.50006  0.80486  0.17752  1.0000
  H   H1366     1.0  0.49392  0.78263  0.18117  1.0000
  H   H1367     1.0  0.46391  0.80094  0.26326  1.0000
  O   O441      1.0  0.47689  0.80720  0.24555  1.0000
  H   H1368     1.0  0.49715  0.79913  0.25023  1.0000
  H   H1369     1.0  0.48436  0.80071  0.75099  1.0000
  O   O442      1.0  0.48853  0.82215  0.75738  1.0000
  H   H1370     1.0  0.50665  0.82939  0.74633  1.0000
  H   H1371     1.0  0.49673  0.81124  0.79397  1.0000
  O   O443      1.0  0.49998  0.80217  0.81491  1.0000
  H   H1372     1.0  0.50177  0.77958  0.81364  1.0000
  H   H1373     1.0  0.50299  0.81537  0.84613  1.0000
  O   O444      1.0  0.50693  0.82337  0.86823  1.0000
  H   H1374     1.0  0.50615  0.84566  0.86632  1.0000
  H   H1375     1.0  0.51295  0.90572  0.16646  1.0000
  O   O445      1.0  0.51611  0.88658  0.17758  1.0000
  H   H1376     1.0  0.51020  0.89035  0.20010  1.0000
  H   H1377     1.0  0.47311  0.89985  0.23377  1.0000
  O   O446      1.0  0.49527  0.89872  0.23263  1.0000
  H   H1378     1.0  0.50273  0.89497  0.25404  1.0000
  H   H1379     1.0  0.50638  0.87353  0.31614  1.0000
  O   O447      1.0  0.50459  0.87622  0.29254  1.0000
  H   H1380     1.0  0.50314  0.85546  0.28425  1.0000
  H   H1381     1.0  0.49769  0.86291  0.36570  1.0000
  O   O448      1.0  0.51361  0.86420  0.35019  1.0000
  H   H1382     1.0  0.53359  0.86719  0.36183  1.0000
  H   H1383     1.0  0.46600  0.87292  0.43373  1.0000
  O   O449      1.0  0.48956  0.87280  0.42980  1.0000
  H   H1384     1.0  0.49599  0.89233  0.42115  1.0000
  H   H1385     1.0  0.50198  0.86641  0.45910  1.0000
  O   O450      1.0  0.50915  0.86426  0.48252  1.0000
  H   H1386     1.0  0.49268  0.87057  0.49603  1.0000
  H   H1387     1.0  0.49605  0.85333  0.56379  1.0000
  O   O451      1.0  0.50705  0.86909  0.57504  1.0000
  H   H1388     1.0  0.52961  0.86795  0.56899  1.0000
  H   H1389     1.0  0.49977  0.87530  0.60673  1.0000
  O   O452      1.0  0.49535  0.88165  0.62989  1.0000
  H   H1390     1.0  0.50613  0.90079  0.63352  1.0000
  H   H1391     1.0  0.49410  0.86786  0.66780  1.0000
  O   O453      1.0  0.48858  0.86418  0.68994  1.0000
  H   H1392     1.0  0.50584  0.86789  0.70349  1.0000
  H   H1393     1.0  0.48296  0.89062  0.77308  1.0000
  O   O454      1.0  0.50360  0.89792  0.77907  1.0000
  H   H1394     1.0  0.51950  0.88793  0.76375  1.0000
  H   H1395     1.0  0.50810  0.90013  0.84589  1.0000
  O   O455      1.0  0.51595  0.88499  0.83148  1.0000
  H   H1396     1.0  0.50989  0.89158  0.80666  1.0000
  H   H1397     1.0  0.55919  0.11216  0.14678  1.0000
  O   O456      1.0  0.55788  0.12835  0.16231  1.0000
  H   H1398     1.0  0.55664  0.14935  0.14997  1.0000
  H   H1399     1.0  0.54308  0.13013  0.24515  1.0000
  O   O457      1.0  0.56471  0.13594  0.24243  1.0000
  H   H1400     1.0  0.56813  0.15689  0.23319  1.0000
  H   H1401     1.0  0.55039  0.13504  0.31624  1.0000
  O   O458      1.0  0.56949  0.13348  0.32724  1.0000
  H   H1402     1.0  0.58887  0.13969  0.31452  1.0000
  H   H1403     1.0  0.57333  0.12238  0.35517  1.0000
  O   O459      1.0  0.57885  0.11330  0.37761  1.0000
  H   H1404     1.0  0.59119  0.09511  0.37593  1.0000
  H   H1405     1.0  0.57597  0.12485  0.40615  1.0000
  O   O460      1.0  0.57655  0.13334  0.42963  1.0000
  H   H1406     1.0  0.55808  0.13000  0.44117  1.0000
  H   H1407     1.0  0.53528  0.11252  0.50662  1.0000
  O   O461      1.0  0.56261  0.10880  0.52758  1.0000
  H   H1408     1.0  0.59654  0.11213  0.51118  1.0000
  H   H1409     1.0  0.55703  0.12965  0.60209  1.0000
  O   O462      1.0  0.56240  0.13021  0.55419  1.0000
  H   H1410     1.0  0.59499  0.13473  0.56341  1.0000
  H   H1411     1.0  0.52579  0.14222  0.62906  1.0000
  O   O463      1.0  0.55084  0.13575  0.62295  1.0000
  H   H1412     1.0  0.56518  0.13210  0.64396  1.0000
  H   H1413     1.0  0.56427  0.11996  0.68650  1.0000
  O   O464      1.0  0.57745  0.12829  0.67053  1.0000
  H   H1414     1.0  0.59746  0.13716  0.68128  1.0000
  H   H1415     1.0  0.56538  0.12580  0.76658  1.0000
  O   O465      1.0  0.57867  0.13327  0.75017  1.0000
  H   H1416     1.0  0.59315  0.15759  0.75598  1.0000
  H   H1417     1.0  0.56669  0.12757  0.84350  1.0000
  O   O466      1.0  0.57404  0.13093  0.82244  1.0000
  H   H1418     1.0  0.56753  0.15224  0.81638  1.0000
  H   H1419     1.0  0.52888  0.17907  0.12903  1.0000
  O   O467      1.0  0.55100  0.17554  0.13257  1.0000
  H   H1420     1.0  0.56009  0.19631  0.13617  1.0000
  H   H1421     1.0  0.56792  0.20605  0.21490  1.0000
  O   O468      1.0  0.58141  0.18950  0.22082  1.0000
  H   H1422     1.0  0.60053  0.18914  0.20614  1.0000
  H   H1423     1.0  0.56377  0.19161  0.83857  1.0000
  O   O469      1.0  0.55556  0.18766  0.81216  1.0000
  H   H1424     1.0  0.56414  0.20086  0.79631  1.0000
  H   H1425     1.0  0.54447  0.18756  0.87463  1.0000
  O   O470      1.0  0.56718  0.19263  0.86517  1.0000
  H   H1426     1.0  0.57310  0.21415  0.87130  1.0000
  H   H1427     1.0  0.55662  0.24798  0.13133  1.0000
  O   O471      1.0  0.56976  0.23213  0.13993  1.0000
  H   H1428     1.0  0.59092  0.23885  0.13804  1.0000
  H   H1429     1.0  0.57046  0.26506  0.87369  1.0000
  O   O472      1.0  0.58354  0.24718  0.87225  1.0000
  H   H1430     1.0  0.59682  0.24771  0.85216  1.0000
  H   H1431     1.0  0.55384  0.31992  0.09822  1.0000
  O   O473      1.0  0.55789  0.30874  0.11729  1.0000
  H   H1432     1.0  0.58104  0.31176  0.12256  1.0000
  H   H1433     1.0  0.55665  0.34136  0.87409  1.0000
  O   O474      1.0  0.55556  0.31872  0.87997  1.0000
  H   H1434     1.0  0.57683  0.31220  0.88157  1.0000
  H   H1435     1.0  0.56213  0.40340  0.12263  1.0000
  O   O475      1.0  0.55799  0.38043  0.12747  1.0000
  H   H1436     1.0  0.57680  0.36915  0.12864  1.0000
  H   H1437     1.0  0.55853  0.39453  0.87099  1.0000
  O   O476      1.0  0.56261  0.37331  0.86243  1.0000
  H   H1438     1.0  0.58298  0.37443  0.85343  1.0000
  H   H1439     1.0  0.56386  0.45527  0.12099  1.0000
  O   O477      1.0  0.56957  0.43462  0.11252  1.0000
  H   H1440     1.0  0.59229  0.43548  0.11102  1.0000
  H   H1441     1.0  0.56121  0.45218  0.87874  1.0000
  O   O478      1.0  0.56248  0.42968  0.88501  1.0000
  H   H1442     1.0  0.58101  0.42828  0.89710  1.0000
  H   H1443     1.0  0.56501  0.51209  0.13087  1.0000
  O   O479      1.0  0.56265  0.48889  0.13773  1.0000
  H   H1444     1.0  0.57716  0.48498  0.15419  1.0000
  H   H1445     1.0  0.55761  0.50617  0.87845  1.0000
  O   O480      1.0  0.56726  0.48658  0.87230  1.0000
  H   H1446     1.0  0.58468  0.49229  0.85921  1.0000
  H   H1447     1.0  0.56338  0.55433  0.14444  1.0000
  O   O481      1.0  0.56725  0.54327  0.12506  1.0000
  H   H1448     1.0  0.58939  0.54995  0.11667  1.0000
  H   H1449     1.0  0.55782  0.56950  0.88311  1.0000
  O   O482      1.0  0.56494  0.54807  0.88508  1.0000
  H   H1450     1.0  0.58695  0.54931  0.88598  1.0000
  H   H1451     1.0  0.56238  0.63886  0.11653  1.0000
  O   O483      1.0  0.55796  0.61979  0.12749  1.0000
  H   H1452     1.0  0.57734  0.61073  0.13322  1.0000
  H   H1453     1.0  0.55804  0.62714  0.89148  1.0000
  O   O484      1.0  0.56246  0.61003  0.87768  1.0000
  H   H1454     1.0  0.58501  0.61108  0.87361  1.0000
  H   H1455     1.0  0.54797  0.68760  0.12648  1.0000
  O   O485      1.0  0.56947  0.69385  0.12995  1.0000
  H   H1456     1.0  0.57136  0.71669  0.13117  1.0000
  H   H1457     1.0  0.54514  0.67867  0.87344  1.0000
  O   O486      1.0  0.56702  0.68633  0.87005  1.0000
  H   H1458     1.0  0.56660  0.70795  0.86474  1.0000
  H   H1459     1.0  0.54854  0.75387  0.11911  1.0000
  O   O487      1.0  0.56917  0.75326  0.12746  1.0000
  H   H1460     1.0  0.57524  0.77503  0.13080  1.0000
  H   H1461     1.0  0.55305  0.74730  0.88340  1.0000
  O   O488      1.0  0.57172  0.75325  0.87253  1.0000
  H   H1462     1.0  0.57002  0.77696  0.86889  1.0000
  H   H1463     1.0  0.55305  0.81580  0.11925  1.0000
  O   O489      1.0  0.57408  0.81513  0.12770  1.0000
  H   H1464     1.0  0.57481  0.83348  0.14184  1.0000
  H   H1465     1.0  0.54018  0.80582  0.19183  1.0000
  O   O490      1.0  0.56003  0.80737  0.20237  1.0000
  H   H1466     1.0  0.57544  0.80587  0.18611  1.0000
  H   H1467     1.0  0.55102  0.81868  0.79573  1.0000
  O   O491      1.0  0.56246  0.83690  0.79000  1.0000
  H   H1468     1.0  0.56602  0.84911  0.81055  1.0000
  H   H1469     1.0  0.54053  0.81313  0.87165  1.0000
  O   O492      1.0  0.56294  0.80896  0.86809  1.0000
  H   H1470     1.0  0.56991  0.82791  0.85753  1.0000
  H   H1471     1.0  0.54827  0.87232  0.16778  1.0000
  O   O493      1.0  0.56947  0.86421  0.16518  1.0000
  H   H1472     1.0  0.57757  0.86541  0.18634  1.0000
  H   H1473     1.0  0.56369  0.83835  0.22431  1.0000
  O   O494      1.0  0.56985  0.85841  0.23352  1.0000
  H   H1474     1.0  0.56598  0.85810  0.25584  1.0000
  H   H1475     1.0  0.56125  0.85024  0.31391  1.0000
  O   O495      1.0  0.56943  0.86905  0.30495  1.0000
  H   H1476     1.0  0.55174  0.88210  0.30109  1.0000
  H   H1477     1.0  0.56715  0.86995  0.40114  1.0000
  O   O496      1.0  0.56278  0.86929  0.37825  1.0000
  H   H1478     1.0  0.58187  0.86755  0.36687  1.0000
  H   H1479     1.0  0.57814  0.84180  0.43614  1.0000
  O   O497      1.0  0.58099  0.86409  0.43756  1.0000
  H   H1480     1.0  0.57331  0.87029  0.46013  1.0000
  H   H1481     1.0  0.53874  0.87239  0.48825  1.0000
  O   O498      1.0  0.56224  0.87652  0.48990  1.0000
  H   H1482     1.0  0.56898  0.86988  0.51036  1.0000
  H   H1483     1.0  0.56013  0.83588  0.56418  1.0000
  O   O499      1.0  0.56057  0.85863  0.56243  1.0000
  H   H1484     1.0  0.58224  0.86479  0.56386  1.0000
  H   H1485     1.0  0.54880  0.86794  0.62883  1.0000
  O   O500      1.0  0.56257  0.87892  0.64246  1.0000
  H   H1486     1.0  0.58407  0.87805  0.63312  1.0000
  H   H1487     1.0  0.56997  0.84152  0.69824  1.0000
  O   O501      1.0  0.56957  0.86411  0.69740  1.0000
  H   H1488     1.0  0.56507  0.87062  0.67440  1.0000
  H   H1489     1.0  0.54986  0.85568  0.76419  1.0000
  O   O502      1.0  0.53922  0.86897  0.74776  1.0000
  H   H1490     1.0  0.55164  0.87083  0.72845  1.0000
  H   H1491     1.0  0.54218  0.87470  0.83723  1.0000
  O   O503      1.0  0.56503  0.86435  0.84005  1.0000
  H   H1492     1.0  0.57917  0.88026  0.84604  1.0000
  H   H1493     1.0  0.60600  0.12411  0.18086  1.0000
  O   O504      1.0  0.62634  0.13229  0.18420  1.0000
  H   H1494     1.0  0.62450  0.15497  0.18198  1.0000
  H   H1495     1.0  0.58965  0.12004  0.24954  1.0000
  O   O505      1.0  0.61107  0.11120  0.25731  1.0000
  H   H1496     1.0  0.62571  0.11200  0.24039  1.0000
  H   H1497     1.0  0.61875  0.16570  0.28860  1.0000
  O   O506      1.0  0.61774  0.14482  0.30077  1.0000
  H   H1498     1.0  0.61685  0.12793  0.28162  1.0000
  H   H1499     1.0  0.63743  0.13764  0.32118  1.0000
  O   O507      1.0  0.65497  0.12810  0.33744  1.0000
  H   H1500     1.0  0.64962  0.10667  0.34030  1.0000
  H   H1501     1.0  0.60689  0.14438  0.44152  1.0000
  O   O508      1.0  0.62701  0.14793  0.45280  1.0000
  H   H1502     1.0  0.65309  0.14039  0.44087  1.0000
  H   H1503     1.0  0.62434  0.13656  0.47301  1.0000
  O   O509      1.0  0.61670  0.11516  0.50098  1.0000
  H   H1504     1.0  0.63206  0.10525  0.51361  1.0000
  H   H1505     1.0  0.61314  0.16289  0.57824  1.0000
  O   O510      1.0  0.61557  0.14133  0.57255  1.0000
  H   H1506     1.0  0.64555  0.13432  0.56366  1.0000
  H   H1507     1.0  0.63620  0.13776  0.66890  1.0000
  O   O511      1.0  0.64145  0.13076  0.64231  1.0000
  H   H1508     1.0  0.62429  0.12282  0.63078  1.0000
  H   H1509     1.0  0.62988  0.16328  0.70142  1.0000
  O   O512      1.0  0.62511  0.14336  0.69244  1.0000
  H   H1510     1.0  0.62739  0.12033  0.71637  1.0000
  H   H1511     1.0  0.59660  0.11747  0.74437  1.0000
  O   O513      1.0  0.62285  0.10616  0.73523  1.0000
  H   H1512     1.0  0.63777  0.10980  0.75164  1.0000
  H   H1513     1.0  0.61492  0.11763  0.81363  1.0000
  O   O514      1.0  0.63612  0.12187  0.80784  1.0000
  H   H1514     1.0  0.63727  0.14452  0.80799  1.0000
  H   H1515     1.0  0.61359  0.17457  0.12145  1.0000
  O   O515      1.0  0.63185  0.18501  0.11495  1.0000
  H   H1516     1.0  0.63021  0.20952  0.11371  1.0000
  H   H1517     1.0  0.62059  0.21476  0.18180  1.0000
  O   O516      1.0  0.62511  0.19281  0.18739  1.0000
  H   H1518     1.0  0.64833  0.19353  0.19096  1.0000
  H   H1519     1.0  0.60152  0.19185  0.25118  1.0000
  O   O517      1.0  0.61805  0.19016  0.26747  1.0000
  H   H1520     1.0  0.63596  0.20171  0.26160  1.0000
  H   H1521     1.0  0.60199  0.19611  0.74876  1.0000
  O   O518      1.0  0.60845  0.17767  0.75968  1.0000
  H   H1522     1.0  0.62316  0.18157  0.78150  1.0000
  H   H1523     1.0  0.62518  0.19872  0.81909  1.0000
  O   O519      1.0  0.63657  0.18522  0.80517  1.0000
  H   H1524     1.0  0.66194  0.19192  0.80800  1.0000
  H   H1525     1.0  0.62195  0.16900  0.87935  1.0000
  O   O520      1.0  0.63968  0.17961  0.88716  1.0000
  H   H1526     1.0  0.63589  0.20472  0.89374  1.0000
  H   H1527     1.0  0.62593  0.24774  0.09194  1.0000
  O   O521      1.0  0.63182  0.23976  0.11218  1.0000
  H   H1528     1.0  0.65330  0.25063  0.11891  1.0000
  H   H1529     1.0  0.60026  0.26052  0.19580  1.0000
  O   O522      1.0  0.61797  0.24974  0.18752  1.0000
  H   H1530     1.0  0.63631  0.26083  0.19364  1.0000
  H   H1531     1.0  0.62058  0.25874  0.75819  1.0000
  O   O523      1.0  0.62279  0.23963  0.77010  1.0000
  H   H1532     1.0  0.64215  0.23102  0.76316  1.0000
  H   H1533     1.0  0.61977  0.24341  0.80599  1.0000
  O   O524      1.0  0.62048  0.24213  0.82972  1.0000
  H   H1534     1.0  0.64082  0.24813  0.83670  1.0000
  H   H1535     1.0  0.61385  0.24099  0.89303  1.0000
  O   O525      1.0  0.63431  0.23226  0.89753  1.0000
  H   H1536     1.0  0.65167  0.24413  0.88629  1.0000
  H   H1537     1.0  0.61868  0.34091  0.12849  1.0000
  O   O526      1.0  0.61112  0.31847  0.12513  1.0000
  H   H1538     1.0  0.62602  0.30332  0.13133  1.0000
  H   H1539     1.0  0.61584  0.30271  0.84886  1.0000
  O   O527      1.0  0.61584  0.31107  0.86988  1.0000
  H   H1540     1.0  0.63766  0.31245  0.87652  1.0000
  H   H1541     1.0  0.62173  0.39138  0.13383  1.0000
  O   O528      1.0  0.62972  0.37059  0.13245  1.0000
  H   H1542     1.0  0.65129  0.37156  0.12233  1.0000
  H   H1543     1.0  0.62650  0.40090  0.86315  1.0000
  O   O529      1.0  0.62725  0.37735  0.85498  1.0000
  H   H1544     1.0  0.62435  0.36161  0.87069  1.0000
  H   H1545     1.0  0.62849  0.46228  0.12815  1.0000
  O   O530      1.0  0.62628  0.44050  0.11912  1.0000
  H   H1546     1.0  0.64529  0.43556  0.10898  1.0000
  H   H1547     1.0  0.61729  0.44182  0.85417  1.0000
  O   O531      1.0  0.62738  0.42967  0.87002  1.0000
  H   H1548     1.0  0.65062  0.43672  0.87500  1.0000
  H   H1549     1.0  0.62687  0.51239  0.12919  1.0000
  O   O532      1.0  0.63425  0.49405  0.13995  1.0000
  H   H1550     1.0  0.65714  0.49693  0.14335  1.0000
  H   H1551     1.0  0.62542  0.52642  0.85663  1.0000
  O   O533      1.0  0.62505  0.50127  0.85015  1.0000
  H   H1552     1.0  0.63101  0.48989  0.86863  1.0000
  H   H1553     1.0  0.62426  0.58151  0.11790  1.0000
  O   O534      1.0  0.61794  0.55798  0.10994  1.0000
  H   H1554     1.0  0.62429  0.55470  0.08860  1.0000
  H   H1555     1.0  0.62128  0.57178  0.85856  1.0000
  O   O535      1.0  0.62962  0.55295  0.86743  1.0000
  H   H1556     1.0  0.65358  0.55708  0.87378  1.0000
  H   H1557     1.0  0.62272  0.62896  0.12357  1.0000
  O   O536      1.0  0.63203  0.60770  0.12751  1.0000
  H   H1558     1.0  0.65520  0.61069  0.12902  1.0000
  H   H1559     1.0  0.62152  0.63891  0.86923  1.0000
  O   O537      1.0  0.62040  0.61482  0.87253  1.0000
  H   H1560     1.0  0.62867  0.61016  0.89294  1.0000
  H   H1561     1.0  0.59467  0.67560  0.12460  1.0000
  O   O538      1.0  0.61347  0.66169  0.11994  1.0000
  H   H1562     1.0  0.62844  0.67344  0.10862  1.0000
  H   H1563     1.0  0.59525  0.67537  0.86644  1.0000
  O   O539      1.0  0.61815  0.66911  0.86495  1.0000
  H   H1564     1.0  0.63050  0.68697  0.86937  1.0000
  H   H1565     1.0  0.62343  0.73913  0.12929  1.0000
  O   O540      1.0  0.64122  0.74841  0.11994  1.0000
  H   H1566     1.0  0.63731  0.77130  0.11853  1.0000
  H   H1567     1.0  0.59325  0.73908  0.19143  1.0000
  O   O541      1.0  0.61336  0.74782  0.18763  1.0000
  H   H1568     1.0  0.62881  0.73277  0.19400  1.0000
  H   H1569     1.0  0.60098  0.76066  0.74245  1.0000
  O   O542      1.0  0.60876  0.74340  0.75492  1.0000
  H   H1570     1.0  0.62738  0.73548  0.74542  1.0000
  H   H1571     1.0  0.59611  0.74170  0.82737  1.0000
  O   O543      1.0  0.61325  0.74817  0.81475  1.0000
  H   H1572     1.0  0.61020  0.74231  0.79235  1.0000
  H   H1573     1.0  0.60139  0.74183  0.88083  1.0000
  O   O544      1.0  0.62266  0.73344  0.88711  1.0000
  H   H1574     1.0  0.62427  0.73399  0.90965  1.0000
  H   H1575     1.0  0.61336  0.81315  0.11586  1.0000
  O   O545      1.0  0.63404  0.80743  0.12267  1.0000
  H   H1576     1.0  0.63277  0.80824  0.14650  1.0000
  H   H1577     1.0  0.62127  0.78001  0.18367  1.0000
  O   O546      1.0  0.62731  0.80236  0.18012  1.0000
  H   H1578     1.0  0.62811  0.81288  0.20012  1.0000
  H   H1579     1.0  0.60246  0.80874  0.24847  1.0000
  O   O547      1.0  0.62287  0.81685  0.24534  1.0000
  H   H1580     1.0  0.63776  0.80393  0.25673  1.0000
  H   H1581     1.0  0.59868  0.82048  0.75153  1.0000
  O   O548      1.0  0.62047  0.82212  0.75496  1.0000
  H   H1582     1.0  0.63204  0.81384  0.73679  1.0000
  H   H1583     1.0  0.62866  0.77544  0.81749  1.0000
  O   O549      1.0  0.63880  0.79743  0.81721  1.0000
  H   H1584     1.0  0.62908  0.80862  0.80008  1.0000
  H   H1585     1.0  0.62044  0.80845  0.88596  1.0000
  O   O550      1.0  0.64019  0.80779  0.87619  1.0000
  H   H1586     1.0  0.63798  0.80547  0.85290  1.0000
  H   H1587     1.0  0.63040  0.87804  0.16381  1.0000
  O   O551      1.0  0.64806  0.87899  0.17721  1.0000
  H   H1588     1.0  0.64249  0.87605  0.19975  1.0000
  H   H1589     1.0  0.63176  0.84823  0.23934  1.0000
  O   O552      1.0  0.64114  0.86938  0.23502  1.0000
  H   H1590     1.0  0.62924  0.88502  0.24562  1.0000
  H   H1591     1.0  0.62170  0.86110  0.29162  1.0000
  O   O553      1.0  0.63858  0.86664  0.30493  1.0000
  H   H1592     1.0  0.63067  0.86950  0.32683  1.0000
  H   H1593     1.0  0.64801  0.86000  0.36817  1.0000
  O   O554      1.0  0.62750  0.86917  0.36264  1.0000
  H   H1594     1.0  0.62602  0.88839  0.37410  1.0000
  H   H1595     1.0  0.64231  0.85757  0.44124  1.0000
  O   O555      1.0  0.63625  0.87896  0.43760  1.0000
  H   H1596     1.0  0.61333  0.87692  0.43497  1.0000
  H   H1597     1.0  0.63211  0.88560  0.48811  1.0000
  O   O556      1.0  0.63370  0.89503  0.50897  1.0000
  H   H1598     1.0  0.62128  0.91360  0.50799  1.0000
  H   H1599     1.0  0.63206  0.84716  0.56357  1.0000
  O   O557      1.0  0.62045  0.86677  0.56244  1.0000
  H   H1600     1.0  0.62647  0.87763  0.54283  1.0000
  H   H1601     1.0  0.63226  0.88008  0.63300  1.0000
  O   O558      1.0  0.61428  0.87492  0.62109  1.0000
  H   H1602     1.0  0.61855  0.87463  0.59800  1.0000
  H   H1603     1.0  0.60025  0.87926  0.70824  1.0000
  O   O559      1.0  0.61964  0.89017  0.71465  1.0000
  H   H1604     1.0  0.61915  0.91080  0.70615  1.0000
  H   H1605     1.0  0.63454  0.85250  0.76310  1.0000
  O   O560      1.0  0.64345  0.87396  0.76508  1.0000
  H   H1606     1.0  0.63453  0.88471  0.74600  1.0000
  H   H1607     1.0  0.62649  0.87041  0.83131  1.0000
  O   O561      1.0  0.64346  0.88142  0.82235  1.0000
  H   H1608     1.0  0.64177  0.88116  0.79821  1.0000
  H   H1609     1.0  0.66194  0.12195  0.18636  1.0000
  O   O562      1.0  0.68270  0.11854  0.19494  1.0000
  H   H1610     1.0  0.70070  0.12515  0.18196  1.0000
  H   H1611     1.0  0.68741  0.12678  0.22386  1.0000
  O   O563      1.0  0.69440  0.13821  0.24499  1.0000
  H   H1612     1.0  0.71363  0.15153  0.24207  1.0000
  H   H1613     1.0  0.69296  0.13312  0.26978  1.0000
  O   O564      1.0  0.69681  0.13337  0.29979  1.0000
  H   H1614     1.0  0.68030  0.13041  0.31637  1.0000
  H   H1615     1.0  0.67701  0.13194  0.36697  1.0000
  O   O565      1.0  0.69303  0.13404  0.38338  1.0000
  H   H1616     1.0  0.70547  0.15404  0.37821  1.0000
  H   H1617     1.0  0.68788  0.13128  0.45531  1.0000
  O   O566      1.0  0.67584  0.13329  0.43522  1.0000
  H   H1618     1.0  0.68472  0.13257  0.41086  1.0000
  H   H1619     1.0  0.69577  0.12172  0.50624  1.0000
  O   O567      1.0  0.69925  0.13369  0.48758  1.0000
  H   H1620     1.0  0.70874  0.15444  0.49291  1.0000
  H   H1621     1.0  0.67728  0.15073  0.55348  1.0000
  O   O568      1.0  0.66885  0.13100  0.56000  1.0000
  H   H1622     1.0  0.68002  0.12401  0.58835  1.0000
  H   H1623     1.0  0.66292  0.12551  0.63058  1.0000
  O   O569      1.0  0.68537  0.12092  0.61248  1.0000
  H   H1624     1.0  0.70235  0.10742  0.61646  1.0000
  H   H1625     1.0  0.69848  0.13424  0.71536  1.0000
  O   O570      1.0  0.71069  0.13811  0.69506  1.0000
  H   H1626     1.0  0.72606  0.12208  0.69332  1.0000
  H   H1627     1.0  0.68831  0.11164  0.75908  1.0000
  O   O571      1.0  0.68769  0.13086  0.74760  1.0000
  H   H1628     1.0  0.70414  0.14501  0.75693  1.0000
  H   H1629     1.0  0.67625  0.11655  0.81863  1.0000
  O   O572      1.0  0.69655  0.12358  0.82508  1.0000
  H   H1630     1.0  0.69293  0.13864  0.84190  1.0000
  H   H1631     1.0  0.65780  0.17775  0.12562  1.0000
  O   O573      1.0  0.68058  0.17543  0.13544  1.0000
  H   H1632     1.0  0.69631  0.18128  0.12101  1.0000
  H   H1633     1.0  0.68200  0.18543  0.16345  1.0000
  O   O574      1.0  0.68068  0.19486  0.18758  1.0000
  H   H1634     1.0  0.68849  0.17974  0.20227  1.0000
  H   H1635     1.0  0.68876  0.18607  0.84092  1.0000
  O   O575      1.0  0.68777  0.19725  0.81462  1.0000
  H   H1636     1.0  0.69984  0.18405  0.80103  1.0000
  H   H1637     1.0  0.66336  0.17495  0.87685  1.0000
  O   O576      1.0  0.68774  0.17323  0.86443  1.0000
  H   H1638     1.0  0.70659  0.17649  0.87601  1.0000
  H   H1639     1.0  0.68186  0.28786  0.12496  1.0000
  O   O577      1.0  0.67825  0.26440  0.12494  1.0000
  H   H1640     1.0  0.69834  0.25434  0.12581  1.0000
  H   H1641     1.0  0.67415  0.28275  0.87135  1.0000
  O   O578      1.0  0.67370  0.25953  0.86762  1.0000
  H   H1642     1.0  0.69530  0.25321  0.86806  1.0000
  H   H1643     1.0  0.68959  0.34058  0.11995  1.0000
  O   O579      1.0  0.69454  0.31843  0.12501  1.0000
  H   H1644     1.0  0.71640  0.31519  0.12630  1.0000
  H   H1645     1.0  0.68336  0.33685  0.87366  1.0000
  O   O580      1.0  0.67349  0.31592  0.88276  1.0000
  H   H1646     1.0  0.67954  0.31455  0.90446  1.0000
  H   H1647     1.0  0.68942  0.39640  0.11856  1.0000
  O   O581      1.0  0.68056  0.37295  0.10984  1.0000
  H   H1648     1.0  0.68172  0.37220  0.08725  1.0000
  H   H1649     1.0  0.68111  0.38071  0.86328  1.0000
  O   O582      1.0  0.69458  0.36323  0.86500  1.0000
  H   H1650     1.0  0.71707  0.37017  0.87031  1.0000
  H   H1651     1.0  0.69104  0.42592  0.14915  1.0000
  O   O583      1.0  0.69673  0.42212  0.12748  1.0000
  H   H1652     1.0  0.72036  0.43014  0.12196  1.0000
  H   H1653     1.0  0.68550  0.46744  0.87183  1.0000
  O   O584      1.0  0.67817  0.44465  0.87997  1.0000
  H   H1654     1.0  0.69088  0.43601  0.89603  1.0000
  H   H1655     1.0  0.69365  0.52488  0.13133  1.0000
  O   O585      1.0  0.69032  0.49997  0.14110  1.0000
  H   H1656     1.0  0.69535  0.48532  0.12471  1.0000
  H   H1657     1.0  0.68223  0.51238  0.86392  1.0000
  O   O586      1.0  0.69443  0.49390  0.86246  1.0000
  H   H1658     1.0  0.71735  0.49938  0.87107  1.0000
  H   H1659     1.0  0.68383  0.56481  0.13403  1.0000
  O   O587      1.0  0.69679  0.55076  0.12257  1.0000
  H   H1660     1.0  0.71986  0.56122  0.11936  1.0000
  H   H1661     1.0  0.68897  0.58639  0.87256  1.0000
  O   O588      1.0  0.68115  0.56216  0.87876  1.0000
  H   H1662     1.0  0.68955  0.55614  0.89868  1.0000
  H   H1663     1.0  0.68779  0.64245  0.12912  1.0000
  O   O589      1.0  0.68714  0.61808  0.12905  1.0000
  H   H1664     1.0  0.69781  0.61113  0.11060  1.0000
  H   H1665     1.0  0.68168  0.62840  0.87113  1.0000
  O   O590      1.0  0.69675  0.61273  0.86756  1.0000
  H   H1666     1.0  0.72077  0.62135  0.87414  1.0000
  H   H1667     1.0  0.68062  0.68796  0.13978  1.0000
  O   O591      1.0  0.69096  0.67286  0.12708  1.0000
  H   H1668     1.0  0.71411  0.67787  0.12467  1.0000
  H   H1669     1.0  0.68644  0.71210  0.86145  1.0000
  O   O592      1.0  0.69679  0.68897  0.86242  1.0000
  H   H1670     1.0  0.70555  0.68578  0.88299  1.0000
  H   H1671     1.0  0.67529  0.74752  0.12600  1.0000
  O   O593      1.0  0.69641  0.75564  0.13002  1.0000
  H   H1672     1.0  0.69565  0.77905  0.12821  1.0000
  H   H1673     1.0  0.65104  0.73787  0.87112  1.0000
  O   O594      1.0  0.67331  0.73840  0.86269  1.0000
  H   H1674     1.0  0.68336  0.75736  0.86892  1.0000
  H   H1675     1.0  0.67023  0.81368  0.11645  1.0000
  O   O595      1.0  0.69206  0.81254  0.12251  1.0000
  H   H1676     1.0  0.69506  0.82839  0.13915  1.0000
  H   H1677     1.0  0.67615  0.78893  0.19358  1.0000
  O   O596      1.0  0.69458  0.80032  0.19749  1.0000
  H   H1678     1.0  0.69430  0.82110  0.18608  1.0000
  H   H1679     1.0  0.67159  0.80093  0.80587  1.0000
  O   O597      1.0  0.69202  0.80999  0.80019  1.0000
  H   H1680     1.0  0.69403  0.83035  0.81267  1.0000
  H   H1681     1.0  0.67456  0.80838  0.88429  1.0000
  O   O598      1.0  0.69680  0.81001  0.87973  1.0000
  H   H1682     1.0  0.69771  0.82632  0.86384  1.0000
  H   H1683     1.0  0.67780  0.86514  0.17133  1.0000
  O   O599      1.0  0.69673  0.85162  0.16980  1.0000
  H   H1684     1.0  0.71632  0.86258  0.17129  1.0000
  H   H1685     1.0  0.67718  0.86981  0.23881  1.0000
  O   O600      1.0  0.69889  0.86660  0.24526  1.0000
  H   H1686     1.0  0.69813  0.85776  0.26608  1.0000
  H   H1687     1.0  0.67065  0.86852  0.30601  1.0000
  O   O601      1.0  0.69214  0.86917  0.31535  1.0000
  H   H1688     1.0  0.68956  0.86551  0.33829  1.0000
  H   H1689     1.0  0.69984  0.83736  0.37126  1.0000
  O   O602      1.0  0.68301  0.85437  0.37273  1.0000
  H   H1690     1.0  0.68846  0.86753  0.39052  1.0000
  H   H1691     1.0  0.69101  0.86287  0.44113  1.0000
  O   O603      1.0  0.69202  0.88385  0.43240  1.0000
  H   H1692     1.0  0.67002  0.89031  0.43182  1.0000
  H   H1693     1.0  0.68778  0.86077  0.49591  1.0000
  O   O604      1.0  0.69913  0.87934  0.50261  1.0000
  H   H1694     1.0  0.68877  0.89707  0.49375  1.0000
  H   H1695     1.0  0.69595  0.85625  0.56806  1.0000
  O   O605      1.0  0.70371  0.87791  0.56876  1.0000
  H   H1696     1.0  0.69865  0.88678  0.54830  1.0000
  H   H1697     1.0  0.68280  0.85392  0.62646  1.0000
  O   O606      1.0  0.69198  0.87405  0.62986  1.0000
  H   H1698     1.0  0.69520  0.88288  0.60880  1.0000
  H   H1699     1.0  0.69330  0.84864  0.69203  1.0000
  O   O607      1.0  0.70371  0.86911  0.68986  1.0000
  H   H1700     1.0  0.69767  0.87737  0.66920  1.0000
  H   H1701     1.0  0.67768  0.87092  0.76107  1.0000
  O   O608      1.0  0.69953  0.86955  0.75366  1.0000
  H   H1702     1.0  0.69914  0.87314  0.73109  1.0000
  H   H1703     1.0  0.67210  0.86879  0.83006  1.0000
  O   O609      1.0  0.69234  0.85676  0.83250  1.0000
  H   H1704     1.0  0.71000  0.87002  0.83144  1.0000
  H   H1705     1.0  0.74338  0.15630  0.18125  1.0000
  O   O610      1.0  0.73386  0.13569  0.17488  1.0000
  H   H1706     1.0  0.74747  0.11948  0.18143  1.0000
  H   H1707     1.0  0.76051  0.14798  0.25602  1.0000
  O   O611      1.0  0.78025  0.13594  0.26001  1.0000
  H   H1708     1.0  0.79670  0.15260  0.25716  1.0000
  H   H1709     1.0  0.75836  0.15155  0.31457  1.0000
  O   O612      1.0  0.77343  0.12583  0.30990  1.0000
  H   H1710     1.0  0.79558  0.12446  0.31113  1.0000
  H   H1711     1.0  0.75784  0.12169  0.38123  1.0000
  O   O613      1.0  0.77977  0.12589  0.38267  1.0000
  H   H1712     1.0  0.78858  0.15536  0.38066  1.0000
  H   H1713     1.0  0.76215  0.15255  0.43507  1.0000
  O   O614      1.0  0.77208  0.12905  0.43402  1.0000
  H   H1714     1.0  0.79419  0.13022  0.43319  1.0000
  H   H1715     1.0  0.77667  0.11975  0.49160  1.0000
  O   O615      1.0  0.78696  0.12829  0.50969  1.0000
  H   H1716     1.0  0.79948  0.15157  0.50612  1.0000
  H   H1717     1.0  0.75348  0.14264  0.55997  1.0000
  O   O616      1.0  0.76147  0.12110  0.55757  1.0000
  H   H1718     1.0  0.77691  0.12271  0.53363  1.0000
  H   H1719     1.0  0.75936  0.14662  0.61274  1.0000
  O   O617      1.0  0.77802  0.13358  0.60756  1.0000
  H   H1720     1.0  0.79541  0.14959  0.60868  1.0000
  H   H1721     1.0  0.76671  0.15457  0.68460  1.0000
  O   O618      1.0  0.77418  0.13271  0.68835  1.0000
  H   H1722     1.0  0.79622  0.13180  0.68867  1.0000
  H   H1723     1.0  0.74923  0.14996  0.74913  1.0000
  O   O619      1.0  0.77127  0.13356  0.74243  1.0000
  H   H1724     1.0  0.79042  0.15001  0.74366  1.0000
  H   H1725     1.0  0.73361  0.11758  0.83233  1.0000
  O   O620      1.0  0.75487  0.12094  0.83923  1.0000
  H   H1726     1.0  0.76722  0.12032  0.82048  1.0000
  H   H1727     1.0  0.74991  0.16701  0.11325  1.0000
  O   O621      1.0  0.75868  0.18679  0.11891  1.0000
  H   H1728     1.0  0.76034  0.18629  0.14170  1.0000
  H   H1729     1.0  0.74449  0.20598  0.18867  1.0000
  O   O622      1.0  0.75696  0.18513  0.19252  1.0000
  H   H1730     1.0  0.78063  0.18926  0.18818  1.0000
  H   H1731     1.0  0.73184  0.18838  0.25424  1.0000
  O   O623      1.0  0.73856  0.17051  0.24242  1.0000
  H   H1732     1.0  0.74867  0.17763  0.21951  1.0000
  H   H1733     1.0  0.71327  0.14719  0.30631  1.0000
  O   O624      1.0  0.74321  0.17051  0.31745  1.0000
  H   H1734     1.0  0.75337  0.18925  0.31110  1.0000
  H   H1735     1.0  0.73318  0.19158  0.38142  1.0000
  O   O625      1.0  0.71993  0.18025  0.36755  1.0000
  H   H1736     1.0  0.73068  0.17628  0.34620  1.0000
  H   H1737     1.0  0.73106  0.18558  0.43848  1.0000
  O   O626      1.0  0.75230  0.17989  0.43736  1.0000
  H   H1738     1.0  0.76718  0.19837  0.43603  1.0000
  H   H1739     1.0  0.73197  0.20171  0.49203  1.0000
  O   O627      1.0  0.72006  0.18530  0.50275  1.0000
  H   H1740     1.0  0.72823  0.18426  0.52422  1.0000
  H   H1741     1.0  0.74136  0.18619  0.57966  1.0000
  O   O628      1.0  0.74881  0.18071  0.55849  1.0000
  H   H1742     1.0  0.76919  0.18920  0.55642  1.0000
  H   H1743     1.0  0.71583  0.16595  0.61916  1.0000
  O   O629      1.0  0.73689  0.17239  0.62085  1.0000
  H   H1744     1.0  0.74040  0.17858  0.64352  1.0000
  H   H1745     1.0  0.72602  0.16422  0.68766  1.0000
  O   O630      1.0  0.74303  0.18008  0.67979  1.0000
  H   H1746     1.0  0.74168  0.19947  0.69086  1.0000
  H   H1747     1.0  0.72566  0.18229  0.74622  1.0000
  O   O631      1.0  0.73132  0.16550  0.76011  1.0000
  H   H1748     1.0  0.74711  0.17730  0.78749  1.0000
  H   H1749     1.0  0.74875  0.20953  0.80845  1.0000
  O   O632      1.0  0.75782  0.18825  0.80596  1.0000
  H   H1750     1.0  0.78758  0.18949  0.80896  1.0000
  H   H1751     1.0  0.75598  0.15833  0.87284  1.0000
  O   O633      1.0  0.75223  0.18023  0.86943  1.0000
  H   H1752     1.0  0.75348  0.18173  0.84632  1.0000
  H   H1753     1.0  0.74367  0.27059  0.12101  1.0000
  O   O634      1.0  0.73606  0.24948  0.12745  1.0000
  H   H1754     1.0  0.74658  0.23300  0.11645  1.0000
  H   H1755     1.0  0.70541  0.22091  0.18668  1.0000
  O   O635      1.0  0.72667  0.22973  0.18472  1.0000
  H   H1756     1.0  0.72952  0.24046  0.16426  1.0000
  H   H1757     1.0  0.72697  0.23365  0.31345  1.0000
  O   O636      1.0  0.74541  0.23955  0.32499  1.0000
  H   H1758     1.0  0.75612  0.25550  0.31314  1.0000
  H   H1759     1.0  0.74548  0.24330  0.35869  1.0000
  O   O637      1.0  0.75006  0.24688  0.38189  1.0000
  H   H1760     1.0  0.77363  0.24761  0.38446  1.0000
  H   H1761     1.0  0.73898  0.25214  0.48899  1.0000
  O   O638      1.0  0.75234  0.23464  0.48490  1.0000
  H   H1762     1.0  0.77259  0.23757  0.49680  1.0000
  H   H1763     1.0  0.73759  0.24559  0.63416  1.0000
  O   O639      1.0  0.74646  0.24220  0.61364  1.0000
  H   H1764     1.0  0.76917  0.24052  0.61656  1.0000
  H   H1765     1.0  0.74220  0.25098  0.78445  1.0000
  O   O640      1.0  0.75214  0.25779  0.76287  1.0000
  H   H1766     1.0  0.75838  0.28006  0.76428  1.0000
  H   H1767     1.0  0.71077  0.23028  0.81162  1.0000
  O   O641      1.0  0.73143  0.23946  0.81261  1.0000
  H   H1768     1.0  0.73476  0.24778  0.83607  1.0000
  H   H1769     1.0  0.74582  0.27559  0.87639  1.0000
  O   O642      1.0  0.73612  0.25393  0.86744  1.0000
  H   H1770     1.0  0.74431  0.23608  0.87828  1.0000
  H   H1771     1.0  0.75465  0.32482  0.10712  1.0000
  O   O643      1.0  0.75478  0.30393  0.11739  1.0000
  H   H1772     1.0  0.77544  0.30280  0.12625  1.0000
  H   H1773     1.0  0.73090  0.30990  0.19123  1.0000
  O   O644      1.0  0.74990  0.32106  0.18745  1.0000
  H   H1774     1.0  0.74576  0.33995  0.17584  1.0000
  H   H1775     1.0  0.73773  0.32443  0.76591  1.0000
  O   O645      1.0  0.75662  0.31613  0.75779  1.0000
  H   H1776     1.0  0.77049  0.33449  0.75640  1.0000
  H   H1777     1.0  0.72142  0.30935  0.82095  1.0000
  O   O646      1.0  0.74069  0.31845  0.82756  1.0000
  H   H1778     1.0  0.74185  0.34121  0.81907  1.0000
  H   H1779     1.0  0.74794  0.31337  0.86194  1.0000
  O   O647      1.0  0.75463  0.30365  0.88238  1.0000
  H   H1780     1.0  0.77667  0.30936  0.88604  1.0000
  H   H1781     1.0  0.74940  0.37104  0.12374  1.0000
  O   O648      1.0  0.75930  0.36294  0.10513  1.0000
  H   H1782     1.0  0.78149  0.36904  0.10676  1.0000
  H   H1783     1.0  0.73960  0.38129  0.19440  1.0000
  O   O649      1.0  0.74776  0.38276  0.17257  1.0000
  H   H1784     1.0  0.74674  0.40437  0.16655  1.0000
  H   H1785     1.0  0.71165  0.36946  0.23934  1.0000
  O   O650      1.0  0.73155  0.37262  0.23002  1.0000
  H   H1786     1.0  0.74462  0.35678  0.23907  1.0000
  H   H1787     1.0  0.72931  0.38380  0.80372  1.0000
  O   O651      1.0  0.74550  0.36834  0.80502  1.0000
  H   H1788     1.0  0.76551  0.37931  0.80624  1.0000
  H   H1789     1.0  0.75146  0.40353  0.87585  1.0000
  O   O652      1.0  0.74531  0.38038  0.87755  1.0000
  H   H1790     1.0  0.75846  0.36873  0.89112  1.0000
  H   H1791     1.0  0.75568  0.46170  0.11792  1.0000
  O   O653      1.0  0.74651  0.43789  0.11644  1.0000
  H   H1792     1.0  0.75824  0.42393  0.10373  1.0000
  H   H1793     1.0  0.74058  0.43883  0.20824  1.0000
  O   O654      1.0  0.75455  0.44695  0.19273  1.0000
  H   H1794     1.0  0.74643  0.46830  0.18515  1.0000
  H   H1795     1.0  0.75074  0.44557  0.85520  1.0000
  O   O655      1.0  0.75953  0.43450  0.87263  1.0000
  H   H1796     1.0  0.78255  0.43881  0.87347  1.0000
  H   H1797     1.0  0.75452  0.49452  0.14362  1.0000
  O   O656      1.0  0.76393  0.48881  0.12258  1.0000
  H   H1798     1.0  0.78624  0.49358  0.12082  1.0000
  H   H1799     1.0  0.71458  0.49759  0.16168  1.0000
  O   O657      1.0  0.73620  0.49655  0.17247  1.0000
  H   H1800     1.0  0.74185  0.51722  0.18122  1.0000
  H   H1801     1.0  0.75132  0.48509  0.25135  1.0000
  O   O658      1.0  0.76643  0.49903  0.24260  1.0000
  H   H1802     1.0  0.76248  0.51958  0.25151  1.0000
  H   H1803     1.0  0.73439  0.49470  0.78144  1.0000
  O   O659      1.0  0.74756  0.49383  0.79986  1.0000
  H   H1804     1.0  0.73494  0.49759  0.81816  1.0000
  H   H1805     1.0  0.75304  0.52939  0.87604  1.0000
  O   O660      1.0  0.74324  0.50629  0.88009  1.0000
  H   H1806     1.0  0.75490  0.49280  0.89331  1.0000
  H   H1807     1.0  0.75354  0.59628  0.11132  1.0000
  O   O661      1.0  0.74549  0.57306  0.11734  1.0000
  H   H1808     1.0  0.76234  0.55882  0.11671  1.0000
  H   H1809     1.0  0.73972  0.55153  0.21158  1.0000
  O   O662      1.0  0.75223  0.55071  0.19283  1.0000
  H   H1810     1.0  0.74957  0.57230  0.18318  1.0000
  H   H1811     1.0  0.75418  0.56666  0.85325  1.0000
  O   O663      1.0  0.76415  0.55558  0.86997  1.0000
  H   H1812     1.0  0.78916  0.55576  0.86856  1.0000
  H   H1813     1.0  0.75794  0.64303  0.10883  1.0000
  O   O664      1.0  0.76642  0.62239  0.10523  1.0000
  H   H1814     1.0  0.79011  0.62298  0.10864  1.0000
  H   H1815     1.0  0.74374  0.61777  0.19811  1.0000
  O   O665      1.0  0.74918  0.60595  0.17820  1.0000
  H   H1816     1.0  0.73493  0.61111  0.16159  1.0000
  H   H1817     1.0  0.72221  0.63105  0.24291  1.0000
  O   O666      1.0  0.73847  0.63472  0.22764  1.0000
  H   H1818     1.0  0.75286  0.64861  0.23769  1.0000
  H   H1819     1.0  0.73758  0.63126  0.78103  1.0000
  O   O667      1.0  0.75223  0.64690  0.78749  1.0000
  H   H1820     1.0  0.74293  0.66404  0.80885  1.0000
  H   H1821     1.0  0.75597  0.65313  0.88858  1.0000
  O   O668      1.0  0.74545  0.62944  0.88257  1.0000
  H   H1822     1.0  0.75699  0.61253  0.89109  1.0000
  H   H1823     1.0  0.74932  0.68050  0.14897  1.0000
  O   O669      1.0  0.74540  0.68154  0.12550  1.0000
  H   H1824     1.0  0.74898  0.70398  0.12013  1.0000
  H   H1825     1.0  0.73278  0.67779  0.19611  1.0000
  O   O670      1.0  0.74997  0.68654  0.18506  1.0000
  H   H1826     1.0  0.74797  0.71104  0.18620  1.0000
  H   H1827     1.0  0.75524  0.66539  0.76919  1.0000
  O   O671      1.0  0.75950  0.68902  0.75255  1.0000
  H   H1828     1.0  0.75853  0.70842  0.76422  1.0000
  H   H1829     1.0  0.71624  0.68411  0.84288  1.0000
  O   O672      1.0  0.73594  0.68280  0.82543  1.0000
  H   H1830     1.0  0.74215  0.70373  0.82012  1.0000
  H   H1831     1.0  0.75922  0.69758  0.89085  1.0000
  O   O673      1.0  0.76848  0.67674  0.89488  1.0000
  H   H1832     1.0  0.79223  0.67826  0.89231  1.0000
  H   H1833     1.0  0.72235  0.74495  0.12520  1.0000
  O   O674      1.0  0.74700  0.74000  0.12413  1.0000
  H   H1834     1.0  0.75595  0.75907  0.11595  1.0000
  H   H1835     1.0  0.72711  0.75220  0.18672  1.0000
  O   O675      1.0  0.74611  0.74217  0.18146  1.0000
  H   H1836     1.0  0.74885  0.74329  0.15719  1.0000
  H   H1837     1.0  0.75582  0.73510  0.32580  1.0000
  O   O676      1.0  0.75688  0.75286  0.34000  1.0000
  H   H1838     1.0  0.75442  0.77160  0.32778  1.0000
  H   H1839     1.0  0.71003  0.74762  0.38417  1.0000
  O   O677      1.0  0.72917  0.75556  0.39223  1.0000
  H   H1840     1.0  0.74337  0.75223  0.37392  1.0000
  H   H1841     1.0  0.75135  0.74209  0.51674  1.0000
  O   O678      1.0  0.76386  0.76061  0.51727  1.0000
  H   H1842     1.0  0.75132  0.77825  0.50673  1.0000
  H   H1843     1.0  0.74959  0.74235  0.62610  1.0000
  O   O679      1.0  0.74102  0.75347  0.60838  1.0000
  H   H1844     1.0  0.73549  0.77518  0.61620  1.0000
  H   H1845     1.0  0.71643  0.73835  0.76850  1.0000
  O   O680      1.0  0.73327  0.74540  0.75545  1.0000
  H   H1846     1.0  0.73197  0.77035  0.75626  1.0000
  H   H1847     1.0  0.71645  0.75439  0.82578  1.0000
  O   O681      1.0  0.73816  0.75084  0.82749  1.0000
  H   H1848     1.0  0.74816  0.77131  0.82215  1.0000
  H   H1849     1.0  0.74509  0.73934  0.86094  1.0000
  O   O682      1.0  0.74776  0.73087  0.88270  1.0000
  H   H1850     1.0  0.75366  0.74776  0.89616  1.0000
  H   H1851     1.0  0.73662  0.80880  0.11130  1.0000
  O   O683      1.0  0.75694  0.80241  0.11765  1.0000
  H   H1852     1.0  0.75880  0.80621  0.14055  1.0000
  H   H1853     1.0  0.75775  0.80875  0.19658  1.0000
  O   O684      1.0  0.76849  0.81513  0.17732  1.0000
  H   H1854     1.0  0.76474  0.83826  0.17553  1.0000
  H   H1855     1.0  0.71901  0.80121  0.21907  1.0000
  O   O685      1.0  0.73823  0.81024  0.23009  1.0000
  H   H1856     1.0  0.73258  0.83148  0.23447  1.0000
  H   H1857     1.0  0.73175  0.80571  0.30118  1.0000
  O   O686      1.0  0.74737  0.81466  0.31483  1.0000
  H   H1858     1.0  0.74784  0.84043  0.30851  1.0000
  H   H1859     1.0  0.72974  0.80149  0.38102  1.0000
  O   O687      1.0  0.72680  0.81958  0.36754  1.0000
  H   H1860     1.0  0.73519  0.81565  0.34440  1.0000
  H   H1861     1.0  0.74763  0.81401  0.45123  1.0000
  O   O688      1.0  0.75924  0.82468  0.43513  1.0000
  H   H1862     1.0  0.75466  0.84735  0.43499  1.0000
  H   H1863     1.0  0.71505  0.80595  0.49148  1.0000
  O   O689      1.0  0.73646  0.80504  0.49738  1.0000
  H   H1864     1.0  0.74429  0.82591  0.50391  1.0000
  H   H1865     1.0  0.77043  0.77738  0.54441  1.0000
  O   O690      1.0  0.77548  0.79394  0.56114  1.0000
  H   H1866     1.0  0.76508  0.78797  0.58024  1.0000
  H   H1867     1.0  0.71142  0.81105  0.61150  1.0000
  O   O691      1.0  0.72898  0.80729  0.62481  1.0000
  H   H1868     1.0  0.74142  0.82726  0.62646  1.0000
  H   H1869     1.0  0.74496  0.80617  0.67649  1.0000
  O   O692      1.0  0.76150  0.81256  0.68999  1.0000
  H   H1870     1.0  0.76034  0.83522  0.69578  1.0000
  H   H1871     1.0  0.70894  0.80486  0.77923  1.0000
  O   O693      1.0  0.72918  0.79996  0.76239  1.0000
  H   H1872     1.0  0.72773  0.81215  0.74349  1.0000
  H   H1873     1.0  0.75155  0.80187  0.78859  1.0000
  O   O694      1.0  0.76165  0.80256  0.81001  1.0000
  H   H1874     1.0  0.75931  0.82534  0.81805  1.0000
  H   H1875     1.0  0.73018  0.80331  0.88914  1.0000
  O   O695      1.0  0.75316  0.80351  0.88903  1.0000
  H   H1876     1.0  0.75817  0.82178  0.87716  1.0000
  H   H1877     1.0  0.76312  0.88531  0.16185  1.0000
  O   O696      1.0  0.75432  0.87049  0.17609  1.0000
  H   H1878     1.0  0.75505  0.87815  0.19930  1.0000
  H   H1879     1.0  0.72791  0.87993  0.23671  1.0000
  O   O697      1.0  0.74989  0.88400  0.23020  1.0000
  H   H1880     1.0  0.76255  0.88757  0.24829  1.0000
  H   H1881     1.0  0.71930  0.87073  0.30724  1.0000
  O   O698      1.0  0.74416  0.86767  0.30322  1.0000
  H   H1882     1.0  0.75570  0.87970  0.31834  1.0000
  H   H1883     1.0  0.75049  0.84738  0.37134  1.0000
  O   O699      1.0  0.76618  0.86401  0.37010  1.0000
  H   H1884     1.0  0.76414  0.87563  0.38948  1.0000
  H   H1885     1.0  0.72537  0.88747  0.43147  1.0000
  O   O700      1.0  0.74777  0.88196  0.43255  1.0000
  H   H1886     1.0  0.75941  0.89986  0.43864  1.0000
  H   H1887     1.0  0.73497  0.87104  0.50427  1.0000
  O   O701      1.0  0.75436  0.85948  0.50750  1.0000
  H   H1888     1.0  0.76994  0.86737  0.49368  1.0000
  H   H1889     1.0  0.73922  0.88283  0.57380  1.0000
  O   O702      1.0  0.76129  0.88378  0.57962  1.0000
  H   H1890     1.0  0.77273  0.87712  0.56141  1.0000
  H   H1891     1.0  0.73901  0.86962  0.63910  1.0000
  O   O703      1.0  0.75479  0.85694  0.62990  1.0000
  H   H1892     1.0  0.76118  0.86776  0.60959  1.0000
  H   H1893     1.0  0.73671  0.87213  0.69896  1.0000
  O   O704      1.0  0.75899  0.86916  0.70486  1.0000
  H   H1894     1.0  0.77151  0.88241  0.69193  1.0000
  H   H1895     1.0  0.72734  0.87740  0.76612  1.0000
  O   O705      1.0  0.74991  0.88137  0.77265  1.0000
  H   H1896     1.0  0.76223  0.88000  0.75386  1.0000
  H   H1897     1.0  0.77330  0.86787  0.83581  1.0000
  O   O706      1.0  0.75930  0.85695  0.82245  1.0000
  H   H1898     1.0  0.75654  0.86852  0.80053  1.0000
  H   H1899     1.0  0.81103  0.17931  0.11370  1.0000
  O   O707      1.0  0.82639  0.18793  0.12735  1.0000
  H   H1900     1.0  0.83163  0.20998  0.11967  1.0000
  H   H1901     1.0  0.81057  0.22003  0.18363  1.0000
  O   O708      1.0  0.80794  0.19772  0.18005  1.0000
  H   H1902     1.0  0.81672  0.19165  0.15819  1.0000
  H   H1903     1.0  0.80594  0.20150  0.24834  1.0000
  O   O709      1.0  0.81484  0.18029  0.24736  1.0000
  H   H1904     1.0  0.82326  0.17873  0.22631  1.0000
  H   H1905     1.0  0.81189  0.21666  0.31599  1.0000
  O   O710      1.0  0.81260  0.19458  0.32988  1.0000
  H   H1906     1.0  0.82486  0.17951  0.31912  1.0000
  H   H1907     1.0  0.80578  0.18728  0.35573  1.0000
  O   O711      1.0  0.79883  0.17771  0.38014  1.0000
  H   H1908     1.0  0.81318  0.17950  0.39816  1.0000
  H   H1909     1.0  0.81469  0.19862  0.44124  1.0000
  O   O712      1.0  0.82867  0.18273  0.43254  1.0000
  H   H1910     1.0  0.83883  0.17200  0.44934  1.0000
  H   H1911     1.0  0.80178  0.19287  0.49645  1.0000
  O   O713      1.0  0.81254  0.17538  0.50519  1.0000
  H   H1912     1.0  0.82167  0.18263  0.52872  1.0000
  H   H1913     1.0  0.82870  0.18056  0.57445  1.0000
  O   O714      1.0  0.82875  0.19260  0.55508  1.0000
  H   H1914     1.0  0.84022  0.21395  0.55830  1.0000
  H   H1915     1.0  0.80541  0.19823  0.61084  1.0000
  O   O715      1.0  0.81476  0.17802  0.61509  1.0000
  H   H1916     1.0  0.82341  0.18122  0.63718  1.0000
  H   H1917     1.0  0.81179  0.18959  0.68416  1.0000
  O   O716      1.0  0.82860  0.19283  0.67008  1.0000
  H   H1918     1.0  0.84137  0.20977  0.68036  1.0000
  H   H1919     1.0  0.80255  0.19565  0.74588  1.0000
  O   O717      1.0  0.81019  0.17260  0.74783  1.0000
  H   H1920     1.0  0.82135  0.17132  0.76738  1.0000
  H   H1921     1.0  0.81624  0.21837  0.80901  1.0000
  O   O718      1.0  0.81132  0.19387  0.81312  1.0000
  H   H1922     1.0  0.81805  0.18874  0.83610  1.0000
  H   H1923     1.0  0.81319  0.17597  0.88122  1.0000
  O   O719      1.0  0.82633  0.18773  0.86759  1.0000
  H   H1924     1.0  0.82825  0.20982  0.87590  1.0000
  H   H1925     1.0  0.82354  0.25756  0.10847  1.0000
  O   O720      1.0  0.83800  0.24210  0.11509  1.0000
  H   H1926     1.0  0.85068  0.25110  0.13308  1.0000
  H   H1927     1.0  0.81095  0.27943  0.19505  1.0000
  O   O721      1.0  0.81724  0.25675  0.19503  1.0000
  H   H1928     1.0  0.83821  0.25624  0.18633  1.0000
  H   H1929     1.0  0.77596  0.24547  0.24384  1.0000
  O   O722      1.0  0.79638  0.23714  0.24478  1.0000
  H   H1930     1.0  0.80793  0.24543  0.22481  1.0000
  H   H1931     1.0  0.80834  0.24027  0.27718  1.0000
  O   O723      1.0  0.81498  0.23965  0.29997  1.0000
  H   H1932     1.0  0.83646  0.24745  0.30347  1.0000
  H   H1933     1.0  0.80301  0.27280  0.40194  1.0000
  O   O724      1.0  0.80335  0.25201  0.39260  1.0000
  H   H1934     1.0  0.82544  0.24985  0.38139  1.0000
  H   H1935     1.0  0.77395  0.23330  0.45570  1.0000
  O   O725      1.0  0.78704  0.22230  0.44001  1.0000
  H   H1936     1.0  0.79432  0.23458  0.42114  1.0000
  H   H1937     1.0  0.79737  0.25403  0.52851  1.0000
  O   O726      1.0  0.80093  0.24021  0.51087  1.0000
  H   H1938     1.0  0.82303  0.24318  0.50396  1.0000
  H   H1939     1.0  0.80151  0.25603  0.59633  1.0000
  O   O727      1.0  0.80349  0.23964  0.61207  1.0000
  H   H1940     1.0  0.82405  0.24276  0.62131  1.0000
  H   H1941     1.0  0.77662  0.23789  0.75123  1.0000
  O   O728      1.0  0.79396  0.22485  0.74234  1.0000
  H   H1942     1.0  0.80458  0.23606  0.72606  1.0000
  H   H1943     1.0  0.80561  0.26393  0.80894  1.0000
  O   O729      1.0  0.82176  0.24722  0.80757  1.0000
  H   H1944     1.0  0.83972  0.25521  0.81922  1.0000
  H   H1945     1.0  0.82255  0.25502  0.89890  1.0000
  O   O730      1.0  0.83114  0.24240  0.88250  1.0000
  H   H1946     1.0  0.84366  0.25571  0.86804  1.0000
  H   H1947     1.0  0.81596  0.32871  0.11121  1.0000
  O   O731      1.0  0.81274  0.31115  0.12506  1.0000
  H   H1948     1.0  0.83017  0.30981  0.13893  1.0000
  H   H1949     1.0  0.78023  0.31395  0.19681  1.0000
  O   O732      1.0  0.80320  0.31154  0.19992  1.0000
  H   H1950     1.0  0.81190  0.33016  0.19111  1.0000
  H   H1951     1.0  0.81349  0.29806  0.74621  1.0000
  O   O733      1.0  0.82640  0.31609  0.74745  1.0000
  H   H1952     1.0  0.81376  0.33611  0.75104  1.0000
  H   H1953     1.0  0.76848  0.30226  0.81853  1.0000
  O   O734      1.0  0.78946  0.29393  0.81249  1.0000
  H   H1954     1.0  0.79982  0.30990  0.80100  1.0000
  H   H1955     1.0  0.81809  0.34057  0.88384  1.0000
  O   O735      1.0  0.81023  0.31853  0.88475  1.0000
  H   H1956     1.0  0.81857  0.30781  0.86677  1.0000
  H   H1957     1.0  0.81760  0.40188  0.11171  1.0000
  O   O736      1.0  0.81445  0.37888  0.11150  1.0000
  H   H1958     1.0  0.83020  0.37145  0.12594  1.0000
  H   H1959     1.0  0.78861  0.37643  0.17672  1.0000
  O   O737      1.0  0.80925  0.37894  0.18542  1.0000
  H   H1960     1.0  0.80928  0.40110  0.19397  1.0000
  H   H1961     1.0  0.80765  0.34982  0.26673  1.0000
  O   O738      1.0  0.81837  0.36931  0.26935  1.0000
  H   H1962     1.0  0.80310  0.38591  0.26847  1.0000
  H   H1963     1.0  0.78934  0.37484  0.74010  1.0000
  O   O739      1.0  0.79413  0.36076  0.75742  1.0000
  H   H1964     1.0  0.79754  0.37549  0.77721  1.0000
  H   H1965     1.0  0.79522  0.42117  0.80400  1.0000
  O   O740      1.0  0.79858  0.39501  0.80259  1.0000
  H   H1966     1.0  0.81096  0.38838  0.82009  1.0000
  H   H1967     1.0  0.82680  0.39161  0.88890  1.0000
  O   O741      1.0  0.83088  0.37280  0.87754  1.0000
  H   H1968     1.0  0.85080  0.37447  0.86584  1.0000
  H   H1969     1.0  0.82517  0.45385  0.11097  1.0000
  O   O742      1.0  0.82648  0.43466  0.12251  1.0000
  H   H1970     1.0  0.84376  0.43602  0.13789  1.0000
  H   H1971     1.0  0.78457  0.44065  0.19862  1.0000
  O   O743      1.0  0.80787  0.43458  0.19985  1.0000
  H   H1972     1.0  0.81726  0.44336  0.18134  1.0000
  H   H1973     1.0  0.80166  0.44368  0.32976  1.0000
  O   O744      1.0  0.81488  0.45683  0.34250  1.0000
  H   H1974     1.0  0.83023  0.46823  0.32658  1.0000
  H   H1975     1.0  0.77103  0.45762  0.80120  1.0000
  O   O745      1.0  0.79087  0.44912  0.80694  1.0000
  H   H1976     1.0  0.80361  0.46971  0.81286  1.0000
  H   H1977     1.0  0.81995  0.46776  0.87893  1.0000
  O   O746      1.0  0.81494  0.44497  0.87495  1.0000
  H   H1978     1.0  0.82694  0.43850  0.85696  1.0000
  H   H1979     1.0  0.81960  0.52442  0.11369  1.0000
  O   O747      1.0  0.81950  0.50157  0.11758  1.0000
  H   H1980     1.0  0.83147  0.49870  0.13647  1.0000
  H   H1981     1.0  0.80048  0.49691  0.19628  1.0000
  O   O748      1.0  0.81932  0.50655  0.19004  1.0000
  H   H1982     1.0  0.81779  0.52985  0.19396  1.0000
  H   H1983     1.0  0.79952  0.49238  0.25177  1.0000
  O   O749      1.0  0.82178  0.49127  0.25742  1.0000
  H   H1984     1.0  0.83439  0.49212  0.23883  1.0000
  H   H1985     1.0  0.79720  0.47317  0.73105  1.0000
  O   O750      1.0  0.81003  0.49131  0.73491  1.0000
  H   H1986     1.0  0.79700  0.50832  0.74124  1.0000
  H   H1987     1.0  0.80686  0.51689  0.81257  1.0000
  O   O751      1.0  0.81500  0.49632  0.82030  1.0000
  H   H1988     1.0  0.82332  0.49813  0.84171  1.0000
  H   H1989     1.0  0.82403  0.52525  0.87957  1.0000
  O   O752      1.0  0.83113  0.50111  0.88010  1.0000
  H   H1990     1.0  0.85041  0.50035  0.89083  1.0000
  H   H1991     1.0  0.81835  0.57887  0.10630  1.0000
  O   O753      1.0  0.81718  0.56062  0.11987  1.0000
  H   H1992     1.0  0.82724  0.56623  0.13931  1.0000
  H   H1993     1.0  0.78740  0.55709  0.20161  1.0000
  O   O754      1.0  0.80992  0.56062  0.20257  1.0000
  H   H1994     1.0  0.81325  0.58297  0.19861  1.0000
  H   H1995     1.0  0.79496  0.57167  0.32431  1.0000
  O   O755      1.0  0.80958  0.58215  0.33776  1.0000
  H   H1996     1.0  0.82639  0.59272  0.32354  1.0000
  H   H1997     1.0  0.77349  0.53969  0.79382  1.0000
  O   O756      1.0  0.79386  0.54594  0.79990  1.0000
  H   H1998     1.0  0.79360  0.56885  0.80411  1.0000
  H   H1999     1.0  0.82811  0.58113  0.87676  1.0000
  O   O757      1.0  0.81844  0.55407  0.87049  1.0000
  H   H2000     1.0  0.83126  0.55218  0.85132  1.0000
  H   H2001     1.0  0.82717  0.64851  0.11339  1.0000
  O   O758      1.0  0.82169  0.62469  0.11248  1.0000
  H   H2002     1.0  0.83467  0.61631  0.12892  1.0000
  H   H2003     1.0  0.78782  0.61542  0.17854  1.0000
  O   O759      1.0  0.80793  0.61964  0.18753  1.0000
  H   H2004     1.0  0.80888  0.64359  0.19070  1.0000
  H   H2005     1.0  0.79913  0.61093  0.26419  1.0000
  O   O760      1.0  0.81696  0.62452  0.26229  1.0000
  H   H2006     1.0  0.81989  0.62863  0.24013  1.0000
  H   H2007     1.0  0.80651  0.61073  0.73142  1.0000
  O   O761      1.0  0.82376  0.62495  0.73246  1.0000
  H   H2008     1.0  0.81738  0.64861  0.73608  1.0000
  H   H2009     1.0  0.78003  0.62088  0.80134  1.0000
  O   O762      1.0  0.79394  0.60500  0.81004  1.0000
  H   H2010     1.0  0.80325  0.61330  0.82883  1.0000
  H   H2011     1.0  0.83891  0.61628  0.89429  1.0000
  O   O763      1.0  0.83785  0.60480  0.87505  1.0000
  H   H2012     1.0  0.85541  0.61226  0.85293  1.0000
  H   H2013     1.0  0.82854  0.69929  0.11825  1.0000
  O   O764      1.0  0.83581  0.67685  0.12270  1.0000
  H   H2014     1.0  0.84880  0.67613  0.14102  1.0000
  H   H2015     1.0  0.78229  0.67732  0.19612  1.0000
  O   O765      1.0  0.80505  0.67438  0.19769  1.0000
  H   H2016     1.0  0.81186  0.69522  0.18871  1.0000
  H   H2017     1.0  0.78860  0.68415  0.74384  1.0000
  O   O766      1.0  0.81236  0.67884  0.74017  1.0000
  H   H2018     1.0  0.82318  0.68513  0.75895  1.0000
  H   H2019     1.0  0.78875  0.67835  0.83123  1.0000
  O   O767      1.0  0.80530  0.68398  0.81753  1.0000
  H   H2020     1.0  0.80615  0.70841  0.81320  1.0000
  H   H2021     1.0  0.82766  0.70745  0.88806  1.0000
  O   O768      1.0  0.82196  0.68425  0.88747  1.0000
  H   H2022     1.0  0.83468  0.67510  0.87129  1.0000
  H   H2023     1.0  0.79288  0.72456  0.11560  1.0000
  O   O769      1.0  0.81452  0.72818  0.11504  1.0000
  H   H2024     1.0  0.81761  0.75175  0.11087  1.0000
  H   H2025     1.0  0.81033  0.74004  0.20464  1.0000
  O   O770      1.0  0.81272  0.72836  0.18459  1.0000
  H   H2026     1.0  0.81074  0.74178  0.16661  1.0000
  H   H2027     1.0  0.79465  0.73704  0.24840  1.0000
  O   O771      1.0  0.81026  0.75066  0.23988  1.0000
  H   H2028     1.0  0.80276  0.77370  0.24210  1.0000
  H   H2029     1.0  0.80653  0.73474  0.30135  1.0000
  O   O772      1.0  0.81948  0.74895  0.31278  1.0000
  H   H2030     1.0  0.81230  0.77193  0.30940  1.0000
  H   H2031     1.0  0.81833  0.74654  0.34864  1.0000
  O   O773      1.0  0.82175  0.74821  0.37210  1.0000
  H   H2032     1.0  0.81092  0.76655  0.37861  1.0000
  H   H2033     1.0  0.80487  0.73787  0.42648  1.0000
  O   O774      1.0  0.81709  0.75103  0.43998  1.0000
  H   H2034     1.0  0.81444  0.77423  0.43421  1.0000
  H   H2035     1.0  0.80075  0.74451  0.50845  1.0000
  O   O775      1.0  0.81931  0.73827  0.49722  1.0000
  H   H2036     1.0  0.81618  0.74290  0.47392  1.0000
  H   H2037     1.0  0.80831  0.73583  0.62142  1.0000
  O   O776      1.0  0.82423  0.75071  0.61746  1.0000
  H   H2038     1.0  0.81718  0.77312  0.62215  1.0000
  H   H2039     1.0  0.80934  0.73966  0.73063  1.0000
  O   O777      1.0  0.82174  0.74799  0.74745  1.0000
  H   H2040     1.0  0.81878  0.77234  0.74925  1.0000
  H   H2041     1.0  0.81337  0.73994  0.78110  1.0000
  O   O778      1.0  0.81002  0.73645  0.80404  1.0000
  H   H2042     1.0  0.81149  0.75634  0.81601  1.0000
  H   H2043     1.0  0.82506  0.75846  0.88828  1.0000
  O   O779      1.0  0.83810  0.73850  0.88525  1.0000
  H   H2044     1.0  0.85711  0.74168  0.89611  1.0000
  H   H2045     1.0  0.79712  0.79347  0.10570  1.0000
  O   O780      1.0  0.81651  0.78380  0.11123  1.0000
  H   H2046     1.0  0.82088  0.79010  0.13385  1.0000
  H   H2047     1.0  0.79851  0.80371  0.17364  1.0000
  O   O781      1.0  0.81953  0.79516  0.16762  1.0000
  H   H2048     1.0  0.83492  0.80348  0.18123  1.0000
  H   H2049     1.0  0.76942  0.80534  0.24240  1.0000
  O   O782      1.0  0.79169  0.80241  0.24765  1.0000
  H   H2050     1.0  0.79752  0.80914  0.26868  1.0000
  H   H2051     1.0  0.78057  0.80615  0.31129  1.0000
  O   O783      1.0  0.80320  0.80250  0.31017  1.0000
  H   H2052     1.0  0.81097  0.81107  0.33077  1.0000
  H   H2053     1.0  0.79562  0.84029  0.36699  1.0000
  O   O784      1.0  0.81003  0.82258  0.36514  1.0000
  H   H2054     1.0  0.81836  0.81846  0.38592  1.0000
  H   H2055     1.0  0.78979  0.81411  0.43087  1.0000
  O   O785      1.0  0.81230  0.80727  0.43000  1.0000
  H   H2056     1.0  0.82138  0.81571  0.44905  1.0000
  H   H2057     1.0  0.79893  0.80375  0.50141  1.0000
  O   O786      1.0  0.81720  0.81464  0.49503  1.0000
  H   H2058     1.0  0.83405  0.80150  0.50134  1.0000
  H   H2059     1.0  0.80422  0.80499  0.56400  1.0000
  O   O787      1.0  0.82637  0.81246  0.56997  1.0000
  H   H2060     1.0  0.83216  0.83077  0.55862  1.0000
  H   H2061     1.0  0.79672  0.81643  0.63088  1.0000
  O   O788      1.0  0.81475  0.80508  0.62503  1.0000
  H   H2062     1.0  0.82213  0.81152  0.60278  1.0000
  H   H2063     1.0  0.79188  0.80386  0.69025  1.0000
  O   O789      1.0  0.81492  0.80253  0.69476  1.0000
  H   H2064     1.0  0.82688  0.80595  0.67610  1.0000
  H   H2065     1.0  0.79851  0.81145  0.75814  1.0000
  O   O790      1.0  0.81702  0.80258  0.74999  1.0000
  H   H2066     1.0  0.81849  0.80606  0.72538  1.0000
  H   H2067     1.0  0.79050  0.79600  0.81819  1.0000
  O   O791      1.0  0.81237  0.79022  0.82729  1.0000
  H   H2068     1.0  0.82793  0.80161  0.81626  1.0000
  H   H2069     1.0  0.78878  0.79119  0.89346  1.0000
  O   O792      1.0  0.81017  0.78750  0.88720  1.0000
  H   H2070     1.0  0.81156  0.79119  0.86406  1.0000
  H   H2071     1.0  0.87146  0.28702  0.16494  1.0000
  O   O793      1.0  0.86644  0.26318  0.16070  1.0000
  H   H2072     1.0  0.88373  0.25076  0.16665  1.0000
  H   H2073     1.0  0.86721  0.27324  0.23917  1.0000
  O   O794      1.0  0.86854  0.25077  0.23857  1.0000
  H   H2074     1.0  0.87363  0.24372  0.25947  1.0000
  H   H2075     1.0  0.87971  0.27069  0.31283  1.0000
  O   O795      1.0  0.86807  0.25186  0.31512  1.0000
  H   H2076     1.0  0.86468  0.24845  0.33839  1.0000
  H   H2077     1.0  0.85540  0.27810  0.36961  1.0000
  O   O796      1.0  0.85418  0.25435  0.37261  1.0000
  H   H2078     1.0  0.86718  0.24812  0.39159  1.0000
  H   H2079     1.0  0.87850  0.26802  0.43135  1.0000
  O   O797      1.0  0.88189  0.24686  0.42258  1.0000
  H   H2080     1.0  0.87845  0.23121  0.43833  1.0000
  H   H2081     1.0  0.86416  0.26816  0.49821  1.0000
  O   O798      1.0  0.85642  0.24799  0.50380  1.0000
  H   H2082     1.0  0.86146  0.24411  0.52680  1.0000
  H   H2083     1.0  0.83898  0.25827  0.56107  1.0000
  O   O799      1.0  0.85404  0.24201  0.56230  1.0000
  H   H2084     1.0  0.86223  0.24485  0.58855  1.0000
  H   H2085     1.0  0.86200  0.28059  0.61617  1.0000
  O   O800      1.0  0.86340  0.25171  0.61526  1.0000
  H   H2086     1.0  0.87784  0.24109  0.62835  1.0000
  H   H2087     1.0  0.85100  0.25794  0.68868  1.0000
  O   O801      1.0  0.85409  0.23720  0.69735  1.0000
  H   H2088     1.0  0.86725  0.24060  0.71604  1.0000
  H   H2089     1.0  0.88560  0.27744  0.75130  1.0000
  O   O802      1.0  0.88694  0.25584  0.74342  1.0000
  H   H2090     1.0  0.89675  0.24325  0.75906  1.0000
  H   H2091     1.0  0.86867  0.29447  0.83472  1.0000
  O   O803      1.0  0.86358  0.27155  0.84252  1.0000
  H   H2092     1.0  0.88272  0.26069  0.84392  1.0000
  H   H2093     1.0  0.87109  0.31565  0.19828  1.0000
  O   O804      1.0  0.87493  0.31595  0.17514  1.0000
  H   H2094     1.0  0.86978  0.33703  0.16643  1.0000
  H   H2095     1.0  0.83644  0.31643  0.22909  1.0000
  O   O805      1.0  0.85825  0.31733  0.23317  1.0000
  H   H2096     1.0  0.86482  0.33977  0.23668  1.0000
  H   H2097     1.0  0.86424  0.31439  0.28165  1.0000
  O   O806      1.0  0.86846  0.31982  0.30341  1.0000
  H   H2098     1.0  0.87010  0.34280  0.30442  1.0000
  H   H2099     1.0  0.84900  0.32917  0.36656  1.0000
  O   O807      1.0  0.85641  0.30896  0.35969  1.0000
  H   H2100     1.0  0.86084  0.31091  0.33655  1.0000
  H   H2101     1.0  0.84590  0.30533  0.43636  1.0000
  O   O808      1.0  0.86807  0.30148  0.43757  1.0000
  H   H2102     1.0  0.87852  0.31932  0.42907  1.0000
  H   H2103     1.0  0.85089  0.34721  0.50456  1.0000
  O   O809      1.0  0.85881  0.32599  0.50747  1.0000
  H   H2104     1.0  0.86949  0.32054  0.48839  1.0000
  H   H2105     1.0  0.86947  0.32462  0.54574  1.0000
  O   O810      1.0  0.87496  0.33094  0.56724  1.0000
  H   H2106     1.0  0.87335  0.35610  0.57039  1.0000
  H   H2107     1.0  0.86698  0.31813  0.58866  1.0000
  O   O811      1.0  0.85894  0.30567  0.61272  1.0000
  H   H2108     1.0  0.85277  0.31707  0.63093  1.0000
  H   H2109     1.0  0.84219  0.30948  0.70373  1.0000
  O   O812      1.0  0.85411  0.29896  0.68756  1.0000
  H   H2110     1.0  0.87437  0.30757  0.68851  1.0000
  H   H2111     1.0  0.85634  0.31468  0.75629  1.0000
  O   O813      1.0  0.87948  0.31362  0.76246  1.0000
  H   H2112     1.0  0.88993  0.32995  0.75139  1.0000
  H   H2113     1.0  0.87641  0.34268  0.82912  1.0000
  O   O814      1.0  0.87675  0.32120  0.82125  1.0000
  H   H2114     1.0  0.87903  0.31961  0.79782  1.0000
  H   H2115     1.0  0.83653  0.37318  0.17030  1.0000
  O   O815      1.0  0.85632  0.36798  0.15753  1.0000
  H   H2116     1.0  0.86920  0.38601  0.15619  1.0000
  H   H2117     1.0  0.87082  0.39203  0.23828  1.0000
  O   O816      1.0  0.87972  0.37047  0.23991  1.0000
  H   H2118     1.0  0.90086  0.37136  0.23399  1.0000
  H   H2119     1.0  0.84369  0.37611  0.29206  1.0000
  O   O817      1.0  0.85873  0.37795  0.30989  1.0000
  H   H2120     1.0  0.86911  0.39884  0.30938  1.0000
  H   H2121     1.0  0.83664  0.38765  0.37155  1.0000
  O   O818      1.0  0.83337  0.36807  0.36008  1.0000
  H   H2122     1.0  0.84390  0.37170  0.33842  1.0000
  H   H2123     1.0  0.85453  0.37399  0.42410  1.0000
  O   O819      1.0  0.86520  0.37680  0.44381  1.0000
  H   H2124     1.0  0.87342  0.39863  0.44325  1.0000
  H   H2125     1.0  0.83626  0.40188  0.49906  1.0000
  O   O820      1.0  0.83343  0.38029  0.49245  1.0000
  H   H2126     1.0  0.84416  0.37829  0.47150  1.0000
  H   H2127     1.0  0.85534  0.38519  0.59550  1.0000
  O   O821      1.0  0.86810  0.38365  0.57686  1.0000
  H   H2128     1.0  0.87177  0.40357  0.56385  1.0000
  H   H2129     1.0  0.84015  0.40285  0.63620  1.0000
  O   O822      1.0  0.83814  0.37813  0.63509  1.0000
  H   H2130     1.0  0.85214  0.37135  0.65155  1.0000
  H   H2131     1.0  0.83466  0.38680  0.69678  1.0000
  O   O823      1.0  0.85190  0.37291  0.69524  1.0000
  H   H2132     1.0  0.86383  0.37642  0.71460  1.0000
  H   H2133     1.0  0.86623  0.40719  0.75551  1.0000
  O   O824      1.0  0.87733  0.38784  0.75000  1.0000
  H   H2134     1.0  0.89819  0.39088  0.75634  1.0000
  H   H2135     1.0  0.87362  0.39958  0.83408  1.0000
  O   O825      1.0  0.87756  0.37788  0.84506  1.0000
  H   H2136     1.0  0.89672  0.37887  0.85610  1.0000
  H   H2137     1.0  0.86939  0.43267  0.18487  1.0000
  O   O826      1.0  0.86808  0.44073  0.16358  1.0000
  H   H2138     1.0  0.87384  0.46321  0.16468  1.0000
  H   H2139     1.0  0.83898  0.42836  0.22605  1.0000
  O   O827      1.0  0.86042  0.42516  0.23195  1.0000
  H   H2140     1.0  0.86972  0.44585  0.23570  1.0000
  H   H2141     1.0  0.86920  0.45129  0.30770  1.0000
  O   O828      1.0  0.88194  0.43214  0.31245  1.0000
  H   H2142     1.0  0.90190  0.43534  0.30373  1.0000
  H   H2143     1.0  0.83482  0.43786  0.36723  1.0000
  O   O829      1.0  0.84947  0.42477  0.37980  1.0000
  H   H2144     1.0  0.86867  0.42621  0.36861  1.0000
  H   H2145     1.0  0.85691  0.43241  0.42113  1.0000
  O   O830      1.0  0.87023  0.43472  0.43965  1.0000
  H   H2146     1.0  0.87987  0.45629  0.43542  1.0000
  H   H2147     1.0  0.84386  0.46084  0.49835  1.0000
  O   O831      1.0  0.85172  0.43979  0.49494  1.0000
  H   H2148     1.0  0.85881  0.43793  0.47221  1.0000
  H   H2149     1.0  0.86804  0.43289  0.52342  1.0000
  O   O832      1.0  0.87733  0.42975  0.54519  1.0000
  H   H2150     1.0  0.88269  0.44960  0.55390  1.0000
  H   H2151     1.0  0.85038  0.44492  0.62153  1.0000
  O   O833      1.0  0.84719  0.43230  0.63980  1.0000
  H   H2152     1.0  0.85940  0.44050  0.65970  1.0000
  H   H2153     1.0  0.87408  0.43853  0.70321  1.0000
  O   O834      1.0  0.87271  0.45174  0.68514  1.0000
  H   H2154     1.0  0.86625  0.47478  0.69086  1.0000
  H   H2155     1.0  0.82782  0.44041  0.75871  1.0000
  O   O835      1.0  0.84962  0.43982  0.76251  1.0000
  H   H2156     1.0  0.85690  0.46168  0.76193  1.0000
  H   H2157     1.0  0.85706  0.42837  0.80114  1.0000
  O   O836      1.0  0.86570  0.42736  0.82241  1.0000
  H   H2158     1.0  0.87461  0.44890  0.82621  1.0000
  H   H2159     1.0  0.84933  0.49957  0.18093  1.0000
  O   O837      1.0  0.87166  0.49766  0.17467  1.0000
  H   H2160     1.0  0.87846  0.51942  0.17007  1.0000
  H   H2161     1.0  0.88953  0.49692  0.24394  1.0000
  O   O838      1.0  0.88200  0.48125  0.22995  1.0000
  H   H2162     1.0  0.88154  0.48899  0.20756  1.0000
  H   H2163     1.0  0.83654  0.48213  0.28402  1.0000
  O   O839      1.0  0.84945  0.47933  0.30481  1.0000
  H   H2164     1.0  0.85897  0.50104  0.30660  1.0000
  H   H2165     1.0  0.85789  0.52994  0.37414  1.0000
  O   O840      1.0  0.86111  0.50665  0.37504  1.0000
  H   H2166     1.0  0.87066  0.50000  0.35583  1.0000
  H   H2167     1.0  0.87445  0.49456  0.40435  1.0000
  O   O841      1.0  0.88422  0.48681  0.42468  1.0000
  H   H2168     1.0  0.89030  0.50463  0.43675  1.0000
  H   H2169     1.0  0.84081  0.51936  0.50117  1.0000
  O   O842      1.0  0.83563  0.49890  0.51248  1.0000
  H   H2170     1.0  0.84643  0.49825  0.53305  1.0000
  H   H2171     1.0  0.85342  0.49800  0.58618  1.0000
  O   O843      1.0  0.86383  0.49930  0.56589  1.0000
  H   H2172     1.0  0.87635  0.51795  0.56683  1.0000
  H   H2173     1.0  0.84306  0.53193  0.62828  1.0000
  O   O844      1.0  0.84028  0.50867  0.63245  1.0000
  H   H2174     1.0  0.85217  0.50364  0.65111  1.0000
  H   H2175     1.0  0.83704  0.49994  0.71088  1.0000
  O   O845      1.0  0.85390  0.50184  0.69546  1.0000
  H   H2176     1.0  0.86068  0.52449  0.69202  1.0000
  H   H2177     1.0  0.86660  0.51842  0.76637  1.0000
  O   O846      1.0  0.87507  0.49658  0.76490  1.0000
  H   H2178     1.0  0.89034  0.49727  0.74852  1.0000
  H   H2179     1.0  0.88286  0.48744  0.79983  1.0000
  O   O847      1.0  0.88426  0.48158  0.82247  1.0000
  H   H2180     1.0  0.87818  0.49974  0.83428  1.0000
  H   H2181     1.0  0.88766  0.55711  0.19689  1.0000
  O   O848      1.0  0.88192  0.55572  0.17509  1.0000
  H   H2182     1.0  0.87469  0.57725  0.16887  1.0000
  H   H2183     1.0  0.84152  0.55430  0.23916  1.0000
  O   O849      1.0  0.86106  0.55576  0.24985  1.0000
  H   H2184     1.0  0.86907  0.57712  0.24654  1.0000
  H   H2185     1.0  0.86621  0.54242  0.28093  1.0000
  O   O850      1.0  0.87029  0.53316  0.30259  1.0000
  H   H2186     1.0  0.86891  0.54949  0.31792  1.0000
  H   H2187     1.0  0.83055  0.56733  0.36219  1.0000
  O   O851      1.0  0.84962  0.56338  0.37483  1.0000
  H   H2188     1.0  0.86016  0.58362  0.37382  1.0000
  H   H2189     1.0  0.85839  0.55764  0.41598  1.0000
  O   O852      1.0  0.87031  0.56065  0.43517  1.0000
  H   H2190     1.0  0.87278  0.58365  0.43785  1.0000
  H   H2191     1.0  0.82969  0.56406  0.48688  1.0000
  O   O853      1.0  0.84712  0.55047  0.48746  1.0000
  H   H2192     1.0  0.85760  0.55248  0.46579  1.0000
  H   H2193     1.0  0.86168  0.55683  0.54372  1.0000
  O   O854      1.0  0.87264  0.56314  0.56244  1.0000
  H   H2194     1.0  0.87381  0.58626  0.56041  1.0000
  H   H2195     1.0  0.84536  0.58435  0.62627  1.0000
  O   O855      1.0  0.85420  0.56312  0.62207  1.0000
  H   H2196     1.0  0.86177  0.56238  0.60001  1.0000
  H   H2197     1.0  0.86765  0.55689  0.65830  1.0000
  O   O856      1.0  0.86849  0.55394  0.68124  1.0000
  H   H2198     1.0  0.86684  0.57476  0.69074  1.0000
  H   H2199     1.0  0.83420  0.55240  0.77144  1.0000
  O   O857      1.0  0.85635  0.55305  0.77251  1.0000
  H   H2200     1.0  0.86333  0.57570  0.76847  1.0000
  H   H2201     1.0  0.86200  0.55129  0.80874  1.0000
  O   O858      1.0  0.86348  0.55056  0.83220  1.0000
  H   H2202     1.0  0.87767  0.56632  0.83885  1.0000
  H   H2203     1.0  0.84012  0.61297  0.17407  1.0000
  O   O859      1.0  0.86092  0.60986  0.16493  1.0000
  H   H2204     1.0  0.87131  0.63038  0.16723  1.0000
  H   H2205     1.0  0.87312  0.63077  0.24157  1.0000
  O   O860      1.0  0.88190  0.61033  0.23742  1.0000
  H   H2206     1.0  0.89696  0.61339  0.22112  1.0000
  H   H2207     1.0  0.83872  0.61761  0.28815  1.0000
  O   O861      1.0  0.84734  0.60755  0.30756  1.0000
  H   H2208     1.0  0.86022  0.62058  0.32059  1.0000
  H   H2209     1.0  0.85218  0.64327  0.36579  1.0000
  O   O862      1.0  0.86594  0.62467  0.36760  1.0000
  H   H2210     1.0  0.88399  0.63106  0.37866  1.0000
  H   H2211     1.0  0.85502  0.61816  0.46663  1.0000
  O   O863      1.0  0.86792  0.61738  0.44783  1.0000
  H   H2212     1.0  0.87426  0.63872  0.44373  1.0000
  H   H2213     1.0  0.83756  0.65061  0.50078  1.0000
  O   O864      1.0  0.83325  0.62754  0.50265  1.0000
  H   H2214     1.0  0.84406  0.62055  0.52195  1.0000
  H   H2215     1.0  0.84548  0.62064  0.57377  1.0000
  O   O865      1.0  0.86097  0.62012  0.55762  1.0000
  H   H2216     1.0  0.86888  0.64271  0.55555  1.0000
  H   H2217     1.0  0.84402  0.64016  0.63482  1.0000
  O   O866      1.0  0.83789  0.61720  0.64004  1.0000
  H   H2218     1.0  0.84838  0.61374  0.66098  1.0000
  H   H2219     1.0  0.84490  0.61831  0.70940  1.0000
  O   O867      1.0  0.86128  0.61238  0.69272  1.0000
  H   H2220     1.0  0.87889  0.62534  0.69604  1.0000
  H   H2221     1.0  0.84649  0.61558  0.75662  1.0000
  O   O868      1.0  0.86551  0.60899  0.76807  1.0000
  H   H2222     1.0  0.87999  0.62573  0.76321  1.0000
  H   H2223     1.0  0.86635  0.61204  0.81287  1.0000
  O   O869      1.0  0.86983  0.62077  0.83367  1.0000
  H   H2224     1.0  0.86523  0.64849  0.83174  1.0000
  H   H2225     1.0  0.86903  0.66662  0.20158  1.0000
  O   O870      1.0  0.87737  0.66432  0.17996  1.0000
  H   H2226     1.0  0.88519  0.68512  0.17521  1.0000
  H   H2227     1.0  0.83309  0.67469  0.22639  1.0000
  O   O871      1.0  0.85398  0.67401  0.23498  1.0000
  H   H2228     1.0  0.85972  0.69637  0.23884  1.0000
  H   H2229     1.0  0.85307  0.67504  0.28645  1.0000
  O   O872      1.0  0.85855  0.68109  0.30759  1.0000
  H   H2230     1.0  0.86844  0.70348  0.30814  1.0000
  H   H2231     1.0  0.82753  0.68819  0.36621  1.0000
  O   O873      1.0  0.83107  0.66921  0.35486  1.0000
  H   H2232     1.0  0.84214  0.67462  0.33265  1.0000
  H   H2233     1.0  0.84827  0.67551  0.42893  1.0000
  O   O874      1.0  0.86561  0.67919  0.44246  1.0000
  H   H2234     1.0  0.87208  0.70267  0.43895  1.0000
  H   H2235     1.0  0.83228  0.70305  0.49882  1.0000
  O   O875      1.0  0.84501  0.68391  0.49727  1.0000
  H   H2236     1.0  0.85464  0.68262  0.47523  1.0000
  H   H2237     1.0  0.86289  0.68010  0.52654  1.0000
  O   O876      1.0  0.87267  0.67425  0.54739  1.0000
  H   H2238     1.0  0.87641  0.69270  0.55945  1.0000
  H   H2239     1.0  0.84864  0.68753  0.62460  1.0000
  O   O877      1.0  0.84818  0.67064  0.63922  1.0000
  H   H2240     1.0  0.85218  0.67758  0.66246  1.0000
  H   H2241     1.0  0.83668  0.68496  0.70587  1.0000
  O   O878      1.0  0.85598  0.68536  0.69419  1.0000
  H   H2242     1.0  0.86396  0.70853  0.69502  1.0000
  H   H2243     1.0  0.87636  0.67080  0.72641  1.0000
  O   O879      1.0  0.88419  0.66405  0.74705  1.0000
  H   H2244     1.0  0.88812  0.68271  0.75889  1.0000
  H   H2245     1.0  0.83265  0.67567  0.82431  1.0000
  O   O880      1.0  0.85592  0.67261  0.83077  1.0000
  H   H2246     1.0  0.86787  0.69269  0.82666  1.0000
  H   H2247     1.0  0.86530  0.73455  0.17009  1.0000
  O   O881      1.0  0.88218  0.72575  0.18160  1.0000
  H   H2248     1.0  0.87802  0.72990  0.20394  1.0000
  H   H2249     1.0  0.84198  0.74069  0.24281  1.0000
  O   O882      1.0  0.86335  0.73095  0.24264  1.0000
  H   H2250     1.0  0.87442  0.73705  0.26141  1.0000
  H   H2251     1.0  0.85362  0.74221  0.30919  1.0000
  O   O883      1.0  0.87489  0.73350  0.31003  1.0000
  H   H2252     1.0  0.88235  0.73904  0.33179  1.0000
  H   H2253     1.0  0.85666  0.74843  0.37177  1.0000
  O   O884      1.0  0.87888  0.74619  0.36679  1.0000
  H   H2254     1.0  0.89006  0.74441  0.38620  1.0000
  H   H2255     1.0  0.85296  0.74205  0.43565  1.0000
  O   O885      1.0  0.87411  0.73429  0.43882  1.0000
  H   H2256     1.0  0.87944  0.74154  0.46077  1.0000
  H   H2257     1.0  0.85318  0.74667  0.50090  1.0000
  O   O886      1.0  0.87500  0.75071  0.49523  1.0000
  H   H2258     1.0  0.88724  0.74684  0.51361  1.0000
  H   H2259     1.0  0.84351  0.74426  0.57901  1.0000
  O   O887      1.0  0.85863  0.74853  0.56263  1.0000
  H   H2260     1.0  0.85582  0.77050  0.55899  1.0000
  H   H2261     1.0  0.85333  0.74852  0.62994  1.0000
  O   O888      1.0  0.87491  0.74815  0.63993  1.0000
  H   H2262     1.0  0.89055  0.75437  0.62557  1.0000
  H   H2263     1.0  0.85728  0.75217  0.70333  1.0000
  O   O889      1.0  0.87260  0.73845  0.69493  1.0000
  H   H2264     1.0  0.87608  0.74406  0.67114  1.0000
  H   H2265     1.0  0.85378  0.73889  0.75458  1.0000
  O   O890      1.0  0.87490  0.73335  0.76248  1.0000
  H   H2266     1.0  0.88986  0.74137  0.74804  1.0000
  H   H2267     1.0  0.86464  0.73752  0.83174  1.0000
  O   O891      1.0  0.87731  0.72348  0.81993  1.0000
  H   H2268     1.0  0.87761  0.72933  0.79681  1.0000
