data_image0
_chemical_formula_structural       I108Pb27C32N32H193OH2OH2OH2OH2OH2OH2OH2OH2OH2OH2OH2OH2OH2OH2OH2OH2OH2OH2OH2OH2OH2OH2OH2OH2OH2OH2OH2OH2OH2OH2OH2OH2OH2OH2OH2OH2OH2OH2OH2OH2OH2OH2OH2OH2OH2OH2OH2OH2OH2OH2OH2OH2OH2OH2OH2OH2OH2OH2OH2OH2OH2OH2OH2OH2OH2OH2OH2OH2OH2OH2OH2OH2OH2OH2OH2OH2OH2OH2OH2OH2OH2OH2OH2OH2OH2OH2OH2OH2OH2OH2OH2OH2OH2OH2OH2OH2OH2OH2OH2OH2OH2OH2OH2OH2OH2OH2OH2OH2OH2OH2OH2OH2OH2OH2OH2OH2OH2OH2OH2OH2OH2OH2OH2OH2OH2OH2OH2OH2OH2OH2OH2OH2OH2OH2OH2OH2OH2OH2OH2OH2OH2OH2OH2OH2OH2OH2OH2OH2OH2OH2OH2OH2OH2OH2OH2OH2OH2OH2OH2OH2OH2OH2OH2OH2OH2OH2OH2OH2OH2OH2OH2OH2OH2OH2OH2OH2OH2OH2OH2OH2OH2OH2OH2OH2OH2OH2OH2OH2OH2OH2OH2OH2OH2OH2OH2OH2OH2OH2OH2OH2OH2OH2OH2OH2OH2OH2OH2OH2OH2OH2OH2OH2OH2OH2OH2OH2OH2OH2OH2OH2OH2OH2OH2OH2OH2OH2OH2OH2OH2OH2OH2OH2OH2OH2OH2OH2OH2OH2OH2OH2OH2OH2OH2OH2OH2OH2OH2OH2OH2OH2OH2OH2OH2OH2OH2OH2OH2OH2OH2OH2OH2OH2OH2OH2OH2OH2OH2OH2OH2OH2OH2OH2OH2OH2OH2OH2OH2OH2OH2OH2OH2OH2OH2OH2OH2OH2OH2OH2OH2OH2OH2OH2OH2OH2OH2OH2OH2OH2OH2OH2OH2OH2OH2OH2OH2OH2OH2OH2OH2OH2OH2OH2OH2OH2OH2OH2OH2OH2OH2OH2OH2OH2OH2OH2OH2OH2OH2OH2OH2OH2OH2OH2OH2OH2OH2OH2OH2OH2OH2OH2OH2OH2OH2OH2OH2OH2OH2OH2OH2OH2OH2OH2OH2OH2OH2OH2OH2OH2OH2OH2OH2OH2OH2OH2OH2OH2OH2OH2OH2OH
_chemical_formula_sum              "I108 Pb27 C32 N32 H932 O370"
_cell_length_a       37.33
_cell_length_b       36.63
_cell_length_c       35.93
_cell_angle_alpha    90
_cell_angle_beta     90
_cell_angle_gamma    90

_space_group_name_H-M_alt    "P 1"
_space_group_IT_number       1

loop_
  _space_group_symop_operation_xyz
  'x, y, z'

loop_
  _atom_site_type_symbol
  _atom_site_label
  _atom_site_symmetry_multiplicity
  _atom_site_fract_x
  _atom_site_fract_y
  _atom_site_fract_z
  _atom_site_occupancy
  I   I1        1.0  0.31056  0.31988  0.23095  1.0000
  I   I2        1.0  0.47922  0.31988  0.23095  1.0000
  I   I3        1.0  0.64789  0.31988  0.23095  1.0000
  I   I4        1.0  0.31056  0.49045  0.23095  1.0000
  I   I5        1.0  0.47922  0.49045  0.23095  1.0000
  I   I6        1.0  0.64789  0.49045  0.23095  1.0000
  I   I7        1.0  0.31056  0.66102  0.23095  1.0000
  I   I8        1.0  0.47922  0.66102  0.23095  1.0000
  I   I9        1.0  0.64789  0.66102  0.23095  1.0000
  I   I10       1.0  0.31316  0.23460  0.32690  1.0000
  I   I11       1.0  0.48183  0.23460  0.32690  1.0000
  I   I12       1.0  0.65049  0.23460  0.32690  1.0000
  I   I13       1.0  0.23218  0.31988  0.31193  1.0000
  I   I14       1.0  0.31458  0.31988  0.40789  1.0000
  I   I15       1.0  0.31316  0.40516  0.32690  1.0000
  I   I16       1.0  0.40085  0.31988  0.31193  1.0000
  I   I17       1.0  0.48324  0.31988  0.40789  1.0000
  I   I18       1.0  0.48183  0.40516  0.32690  1.0000
  I   I19       1.0  0.56951  0.31988  0.31193  1.0000
  I   I20       1.0  0.65191  0.31988  0.40789  1.0000
  I   I21       1.0  0.65049  0.40516  0.32690  1.0000
  I   I22       1.0  0.73818  0.31988  0.31193  1.0000
  I   I23       1.0  0.23218  0.49045  0.31193  1.0000
  I   I24       1.0  0.31458  0.49045  0.40789  1.0000
  I   I25       1.0  0.31316  0.57573  0.32690  1.0000
  I   I26       1.0  0.40085  0.49045  0.31193  1.0000
  I   I27       1.0  0.48324  0.49045  0.40789  1.0000
  I   I28       1.0  0.48183  0.57573  0.32690  1.0000
  I   I29       1.0  0.56951  0.49045  0.31193  1.0000
  I   I30       1.0  0.65191  0.49045  0.40789  1.0000
  I   I31       1.0  0.65049  0.57573  0.32690  1.0000
  I   I32       1.0  0.73818  0.49045  0.31193  1.0000
  I   I33       1.0  0.23218  0.66102  0.31193  1.0000
  I   I34       1.0  0.31458  0.66102  0.40789  1.0000
  I   I35       1.0  0.31316  0.74630  0.32690  1.0000
  I   I36       1.0  0.40085  0.66102  0.31193  1.0000
  I   I37       1.0  0.48324  0.66102  0.40789  1.0000
  I   I38       1.0  0.48183  0.74630  0.32690  1.0000
  I   I39       1.0  0.56951  0.66102  0.31193  1.0000
  I   I40       1.0  0.65191  0.66102  0.40789  1.0000
  I   I41       1.0  0.65049  0.74630  0.32690  1.0000
  I   I42       1.0  0.73818  0.66102  0.31193  1.0000
  I   I43       1.0  0.31718  0.23459  0.50385  1.0000
  I   I44       1.0  0.48585  0.23459  0.50385  1.0000
  I   I45       1.0  0.65451  0.23459  0.50385  1.0000
  I   I46       1.0  0.23620  0.31988  0.48888  1.0000
  I   I47       1.0  0.31860  0.31988  0.58484  1.0000
  I   I48       1.0  0.31718  0.40516  0.50385  1.0000
  I   I49       1.0  0.40487  0.31988  0.48888  1.0000
  I   I50       1.0  0.48727  0.31988  0.58484  1.0000
  I   I51       1.0  0.48585  0.40516  0.50385  1.0000
  I   I52       1.0  0.57353  0.31988  0.48888  1.0000
  I   I53       1.0  0.65593  0.31988  0.58484  1.0000
  I   I54       1.0  0.65451  0.40516  0.50385  1.0000
  I   I55       1.0  0.74220  0.31988  0.48888  1.0000
  I   I56       1.0  0.23620  0.49045  0.48888  1.0000
  I   I57       1.0  0.31860  0.49045  0.58484  1.0000
  I   I58       1.0  0.31718  0.57573  0.50385  1.0000
  I   I59       1.0  0.40487  0.49045  0.48888  1.0000
  I   I60       1.0  0.48727  0.49045  0.58484  1.0000
  I   I61       1.0  0.48585  0.57573  0.50385  1.0000
  I   I62       1.0  0.57353  0.49045  0.48888  1.0000
  I   I63       1.0  0.65593  0.49045  0.58484  1.0000
  I   I64       1.0  0.65452  0.57573  0.50385  1.0000
  I   I65       1.0  0.74220  0.49045  0.48888  1.0000
  I   I66       1.0  0.23620  0.66102  0.48888  1.0000
  I   I67       1.0  0.31860  0.66102  0.58484  1.0000
  I   I68       1.0  0.31718  0.74630  0.50385  1.0000
  I   I69       1.0  0.40487  0.66102  0.48888  1.0000
  I   I70       1.0  0.48727  0.66102  0.58484  1.0000
  I   I71       1.0  0.48585  0.74630  0.50385  1.0000
  I   I72       1.0  0.57353  0.66102  0.48888  1.0000
  I   I73       1.0  0.65593  0.66102  0.58484  1.0000
  I   I74       1.0  0.65452  0.74630  0.50385  1.0000
  I   I75       1.0  0.74220  0.66102  0.48888  1.0000
  I   I76       1.0  0.32121  0.23459  0.68079  1.0000
  I   I77       1.0  0.48987  0.23459  0.68079  1.0000
  I   I78       1.0  0.65854  0.23459  0.68079  1.0000
  I   I79       1.0  0.24022  0.31988  0.66582  1.0000
  I   I80       1.0  0.32262  0.31988  0.76179  1.0000
  I   I81       1.0  0.32121  0.40516  0.68079  1.0000
  I   I82       1.0  0.40889  0.31988  0.66582  1.0000
  I   I83       1.0  0.49129  0.31988  0.76179  1.0000
  I   I84       1.0  0.48987  0.40516  0.68079  1.0000
  I   I85       1.0  0.57755  0.31988  0.66582  1.0000
  I   I86       1.0  0.65995  0.31988  0.76179  1.0000
  I   I87       1.0  0.65854  0.40516  0.68079  1.0000
  I   I88       1.0  0.74622  0.31988  0.66582  1.0000
  I   I89       1.0  0.24022  0.49045  0.66582  1.0000
  I   I90       1.0  0.32262  0.49045  0.76179  1.0000
  I   I91       1.0  0.32121  0.57573  0.68079  1.0000
  I   I92       1.0  0.40889  0.49045  0.66582  1.0000
  I   I93       1.0  0.49129  0.49045  0.76179  1.0000
  I   I94       1.0  0.48987  0.57573  0.68079  1.0000
  I   I95       1.0  0.57755  0.49045  0.66582  1.0000
  I   I96       1.0  0.65995  0.49045  0.76179  1.0000
  I   I97       1.0  0.65854  0.57573  0.68079  1.0000
  I   I98       1.0  0.74622  0.49045  0.66582  1.0000
  I   I99       1.0  0.24022  0.66102  0.66582  1.0000
  I   I100      1.0  0.32262  0.66102  0.76179  1.0000
  I   I101      1.0  0.32121  0.74630  0.68079  1.0000
  I   I102      1.0  0.40889  0.66102  0.66582  1.0000
  I   I103      1.0  0.49129  0.66102  0.76179  1.0000
  I   I104      1.0  0.48987  0.74630  0.68079  1.0000
  I   I105      1.0  0.57755  0.66102  0.66582  1.0000
  I   I106      1.0  0.65995  0.66102  0.76179  1.0000
  I   I107      1.0  0.65854  0.74630  0.68079  1.0000
  I   I108      1.0  0.74622  0.66102  0.66582  1.0000
  Pb  Pb1       1.0  0.31825  0.31988  0.31974  1.0000
  Pb  Pb2       1.0  0.48691  0.31988  0.31974  1.0000
  Pb  Pb3       1.0  0.65558  0.31988  0.31974  1.0000
  Pb  Pb4       1.0  0.31825  0.49045  0.31974  1.0000
  Pb  Pb5       1.0  0.48691  0.49045  0.31974  1.0000
  Pb  Pb6       1.0  0.65558  0.49045  0.31974  1.0000
  Pb  Pb7       1.0  0.31825  0.66102  0.31974  1.0000
  Pb  Pb8       1.0  0.48691  0.66102  0.31974  1.0000
  Pb  Pb9       1.0  0.65558  0.66102  0.31974  1.0000
  Pb  Pb10      1.0  0.32227  0.31988  0.49669  1.0000
  Pb  Pb11      1.0  0.49094  0.31988  0.49669  1.0000
  Pb  Pb12      1.0  0.65960  0.31988  0.49669  1.0000
  Pb  Pb13      1.0  0.32227  0.49045  0.49669  1.0000
  Pb  Pb14      1.0  0.49094  0.49045  0.49669  1.0000
  Pb  Pb15      1.0  0.65960  0.49045  0.49669  1.0000
  Pb  Pb16      1.0  0.32227  0.66102  0.49669  1.0000
  Pb  Pb17      1.0  0.49094  0.66102  0.49669  1.0000
  Pb  Pb18      1.0  0.65960  0.66102  0.49669  1.0000
  Pb  Pb19      1.0  0.32629  0.31988  0.67364  1.0000
  Pb  Pb20      1.0  0.49496  0.31988  0.67364  1.0000
  Pb  Pb21      1.0  0.66362  0.31988  0.67364  1.0000
  Pb  Pb22      1.0  0.32629  0.49045  0.67364  1.0000
  Pb  Pb23      1.0  0.49496  0.49045  0.67364  1.0000
  Pb  Pb24      1.0  0.66362  0.49045  0.67364  1.0000
  Pb  Pb25      1.0  0.32629  0.66102  0.67364  1.0000
  Pb  Pb26      1.0  0.49496  0.66102  0.67364  1.0000
  Pb  Pb27      1.0  0.66362  0.66102  0.67364  1.0000
  C   C1        1.0  0.39116  0.40516  0.22692  1.0000
  C   C2        1.0  0.55983  0.40516  0.22692  1.0000
  C   C3        1.0  0.39116  0.57573  0.22692  1.0000
  C   C4        1.0  0.55983  0.57573  0.22692  1.0000
  C   C5        1.0  0.39518  0.23459  0.40387  1.0000
  C   C6        1.0  0.56385  0.23459  0.40387  1.0000
  C   C7        1.0  0.22652  0.40516  0.40387  1.0000
  C   C8        1.0  0.39518  0.40516  0.40387  1.0000
  C   C9        1.0  0.56385  0.40516  0.40387  1.0000
  C   C10       1.0  0.73251  0.40516  0.40387  1.0000
  C   C11       1.0  0.22652  0.57573  0.40387  1.0000
  C   C12       1.0  0.39518  0.57573  0.40387  1.0000
  C   C13       1.0  0.56385  0.57573  0.40387  1.0000
  C   C14       1.0  0.73251  0.57573  0.40387  1.0000
  C   C15       1.0  0.39518  0.74630  0.40387  1.0000
  C   C16       1.0  0.56385  0.74630  0.40387  1.0000
  C   C17       1.0  0.39920  0.23459  0.58082  1.0000
  C   C18       1.0  0.56787  0.23459  0.58082  1.0000
  C   C19       1.0  0.23054  0.40516  0.58082  1.0000
  C   C20       1.0  0.39920  0.40516  0.58082  1.0000
  C   C21       1.0  0.56787  0.40516  0.58082  1.0000
  C   C22       1.0  0.73654  0.40516  0.58082  1.0000
  C   C23       1.0  0.23054  0.57573  0.58082  1.0000
  C   C24       1.0  0.39921  0.57573  0.58082  1.0000
  C   C25       1.0  0.56787  0.57573  0.58082  1.0000
  C   C26       1.0  0.73654  0.57573  0.58082  1.0000
  C   C27       1.0  0.39921  0.74630  0.58082  1.0000
  C   C28       1.0  0.56787  0.74630  0.58082  1.0000
  C   C29       1.0  0.40323  0.40516  0.75777  1.0000
  C   C30       1.0  0.57189  0.40516  0.75777  1.0000
  C   C31       1.0  0.40323  0.57573  0.75777  1.0000
  C   C32       1.0  0.57189  0.57573  0.75777  1.0000
  N   N1        1.0  0.42771  0.40516  0.24377  1.0000
  N   N2        1.0  0.59637  0.40516  0.24377  1.0000
  N   N3        1.0  0.42771  0.57573  0.24377  1.0000
  N   N4        1.0  0.59637  0.57573  0.24377  1.0000
  N   N5        1.0  0.43173  0.23459  0.42072  1.0000
  N   N6        1.0  0.60039  0.23459  0.42072  1.0000
  N   N7        1.0  0.26306  0.40516  0.42072  1.0000
  N   N8        1.0  0.43173  0.40516  0.42072  1.0000
  N   N9        1.0  0.60039  0.40516  0.42072  1.0000
  N   N10       1.0  0.76906  0.40516  0.42072  1.0000
  N   N11       1.0  0.26306  0.57573  0.42072  1.0000
  N   N12       1.0  0.43173  0.57573  0.42072  1.0000
  N   N13       1.0  0.60039  0.57573  0.42072  1.0000
  N   N14       1.0  0.76906  0.57573  0.42072  1.0000
  N   N15       1.0  0.43173  0.74630  0.42072  1.0000
  N   N16       1.0  0.60039  0.74630  0.42072  1.0000
  N   N17       1.0  0.43575  0.23459  0.59766  1.0000
  N   N18       1.0  0.60441  0.23459  0.59766  1.0000
  N   N19       1.0  0.26708  0.40516  0.59766  1.0000
  N   N20       1.0  0.43575  0.40516  0.59766  1.0000
  N   N21       1.0  0.60441  0.40516  0.59766  1.0000
  N   N22       1.0  0.77308  0.40516  0.59766  1.0000
  N   N23       1.0  0.26708  0.57573  0.59766  1.0000
  N   N24       1.0  0.43575  0.57573  0.59766  1.0000
  N   N25       1.0  0.60441  0.57573  0.59766  1.0000
  N   N26       1.0  0.77308  0.57573  0.59766  1.0000
  N   N27       1.0  0.43575  0.74630  0.59766  1.0000
  N   N28       1.0  0.60442  0.74630  0.59766  1.0000
  N   N29       1.0  0.43977  0.40516  0.77461  1.0000
  N   N30       1.0  0.60844  0.40516  0.77461  1.0000
  N   N31       1.0  0.43977  0.57573  0.77461  1.0000
  N   N32       1.0  0.60844  0.57573  0.77461  1.0000
  H   H1        1.0  0.39391  0.40516  0.19660  1.0000
  H   H2        1.0  0.37698  0.42972  0.23612  1.0000
  H   H3        1.0  0.37698  0.38060  0.23612  1.0000
  H   H4        1.0  0.44229  0.42812  0.23592  1.0000
  H   H5        1.0  0.44229  0.38221  0.23592  1.0000
  H   H6        1.0  0.42715  0.40516  0.27256  1.0000
  H   H7        1.0  0.56257  0.40516  0.19660  1.0000
  H   H8        1.0  0.54565  0.42972  0.23612  1.0000
  H   H9        1.0  0.54565  0.38060  0.23612  1.0000
  H   H10       1.0  0.61096  0.42812  0.23592  1.0000
  H   H11       1.0  0.61096  0.38221  0.23592  1.0000
  H   H12       1.0  0.59582  0.40516  0.27256  1.0000
  H   H13       1.0  0.39391  0.57573  0.19660  1.0000
  H   H14       1.0  0.37698  0.60029  0.23612  1.0000
  H   H15       1.0  0.37698  0.55117  0.23612  1.0000
  H   H16       1.0  0.44229  0.59869  0.23592  1.0000
  H   H17       1.0  0.44229  0.55278  0.23592  1.0000
  H   H18       1.0  0.42715  0.57573  0.27256  1.0000
  H   H19       1.0  0.56257  0.57573  0.19660  1.0000
  H   H20       1.0  0.54565  0.60029  0.23612  1.0000
  H   H21       1.0  0.54565  0.55117  0.23612  1.0000
  H   H22       1.0  0.61096  0.59869  0.23592  1.0000
  H   H23       1.0  0.61096  0.55278  0.23592  1.0000
  H   H24       1.0  0.59582  0.57573  0.27256  1.0000
  H   H25       1.0  0.39793  0.23460  0.37354  1.0000
  H   H26       1.0  0.38100  0.25915  0.41307  1.0000
  H   H27       1.0  0.38100  0.21003  0.41307  1.0000
  H   H28       1.0  0.44631  0.25755  0.41287  1.0000
  H   H29       1.0  0.44631  0.21164  0.41287  1.0000
  H   H30       1.0  0.43117  0.23459  0.44951  1.0000
  H   H31       1.0  0.56659  0.23460  0.37354  1.0000
  H   H32       1.0  0.54967  0.25915  0.41307  1.0000
  H   H33       1.0  0.54967  0.21003  0.41307  1.0000
  H   H34       1.0  0.61498  0.25755  0.41287  1.0000
  H   H35       1.0  0.61498  0.21164  0.41287  1.0000
  H   H36       1.0  0.59984  0.23459  0.44951  1.0000
  H   H37       1.0  0.22926  0.40516  0.37354  1.0000
  H   H38       1.0  0.21234  0.42972  0.41307  1.0000
  H   H39       1.0  0.21234  0.38060  0.41307  1.0000
  H   H40       1.0  0.27765  0.42812  0.41287  1.0000
  H   H41       1.0  0.27765  0.38221  0.41287  1.0000
  H   H42       1.0  0.26251  0.40516  0.44951  1.0000
  H   H43       1.0  0.39793  0.40516  0.37354  1.0000
  H   H44       1.0  0.38100  0.42972  0.41307  1.0000
  H   H45       1.0  0.38100  0.38060  0.41307  1.0000
  H   H46       1.0  0.44631  0.42812  0.41287  1.0000
  H   H47       1.0  0.44631  0.38221  0.41287  1.0000
  H   H48       1.0  0.43117  0.40516  0.44951  1.0000
  H   H49       1.0  0.56659  0.40516  0.37354  1.0000
  H   H50       1.0  0.54967  0.42972  0.41307  1.0000
  H   H51       1.0  0.54967  0.38060  0.41307  1.0000
  H   H52       1.0  0.61498  0.42812  0.41287  1.0000
  H   H53       1.0  0.61498  0.38221  0.41287  1.0000
  H   H54       1.0  0.59984  0.40516  0.44951  1.0000
  H   H55       1.0  0.73526  0.40516  0.37354  1.0000
  H   H56       1.0  0.71833  0.42972  0.41307  1.0000
  H   H57       1.0  0.71833  0.38060  0.41307  1.0000
  H   H58       1.0  0.78364  0.42812  0.41287  1.0000
  H   H59       1.0  0.78364  0.38221  0.41287  1.0000
  H   H60       1.0  0.76851  0.40516  0.44951  1.0000
  H   H61       1.0  0.22926  0.57573  0.37354  1.0000
  H   H62       1.0  0.21234  0.60029  0.41307  1.0000
  H   H63       1.0  0.21234  0.55117  0.41307  1.0000
  H   H64       1.0  0.27765  0.59869  0.41287  1.0000
  H   H65       1.0  0.27765  0.55277  0.41287  1.0000
  H   H66       1.0  0.26251  0.57573  0.44951  1.0000
  H   H67       1.0  0.39793  0.57573  0.37354  1.0000
  H   H68       1.0  0.38100  0.60029  0.41307  1.0000
  H   H69       1.0  0.38100  0.55117  0.41307  1.0000
  H   H70       1.0  0.44631  0.59869  0.41287  1.0000
  H   H71       1.0  0.44631  0.55277  0.41287  1.0000
  H   H72       1.0  0.43118  0.57573  0.44951  1.0000
  H   H73       1.0  0.56659  0.57573  0.37354  1.0000
  H   H74       1.0  0.54967  0.60029  0.41307  1.0000
  H   H75       1.0  0.54967  0.55117  0.41307  1.0000
  H   H76       1.0  0.61498  0.59869  0.41287  1.0000
  H   H77       1.0  0.61498  0.55277  0.41287  1.0000
  H   H78       1.0  0.59984  0.57573  0.44951  1.0000
  H   H79       1.0  0.73526  0.57573  0.37354  1.0000
  H   H80       1.0  0.71833  0.60029  0.41307  1.0000
  H   H81       1.0  0.71833  0.55117  0.41307  1.0000
  H   H82       1.0  0.78364  0.59869  0.41287  1.0000
  H   H83       1.0  0.78364  0.55277  0.41287  1.0000
  H   H84       1.0  0.76851  0.57573  0.44951  1.0000
  H   H85       1.0  0.39793  0.74630  0.37354  1.0000
  H   H86       1.0  0.38100  0.77086  0.41307  1.0000
  H   H87       1.0  0.38100  0.72174  0.41307  1.0000
  H   H88       1.0  0.44631  0.76926  0.41287  1.0000
  H   H89       1.0  0.44631  0.72334  0.41287  1.0000
  H   H90       1.0  0.43118  0.74630  0.44951  1.0000
  H   H91       1.0  0.56659  0.74630  0.37354  1.0000
  H   H92       1.0  0.54967  0.77086  0.41307  1.0000
  H   H93       1.0  0.54967  0.72174  0.41307  1.0000
  H   H94       1.0  0.61498  0.76926  0.41287  1.0000
  H   H95       1.0  0.61498  0.72334  0.41287  1.0000
  H   H96       1.0  0.59984  0.74630  0.44951  1.0000
  H   H97       1.0  0.40195  0.23459  0.55049  1.0000
  H   H98       1.0  0.38502  0.25915  0.59001  1.0000
  H   H99       1.0  0.38502  0.21003  0.59001  1.0000
  H   H100      1.0  0.45033  0.25755  0.58981  1.0000
  H   H101      1.0  0.45033  0.21164  0.58981  1.0000
  H   H102      1.0  0.43520  0.23459  0.62646  1.0000
  H   H103      1.0  0.57061  0.23459  0.55049  1.0000
  H   H104      1.0  0.55369  0.25915  0.59001  1.0000
  H   H105      1.0  0.55369  0.21003  0.59001  1.0000
  H   H106      1.0  0.61900  0.25755  0.58981  1.0000
  H   H107      1.0  0.61900  0.21164  0.58981  1.0000
  H   H108      1.0  0.60386  0.23459  0.62646  1.0000
  H   H109      1.0  0.23328  0.40516  0.55049  1.0000
  H   H110      1.0  0.21636  0.42972  0.59001  1.0000
  H   H111      1.0  0.21636  0.38060  0.59001  1.0000
  H   H112      1.0  0.28167  0.42812  0.58981  1.0000
  H   H113      1.0  0.28167  0.38220  0.58981  1.0000
  H   H114      1.0  0.26653  0.40516  0.62646  1.0000
  H   H115      1.0  0.40195  0.40516  0.55049  1.0000
  H   H116      1.0  0.38502  0.42972  0.59001  1.0000
  H   H117      1.0  0.38502  0.38060  0.59001  1.0000
  H   H118      1.0  0.45033  0.42812  0.58981  1.0000
  H   H119      1.0  0.45033  0.38220  0.58981  1.0000
  H   H120      1.0  0.43520  0.40516  0.62646  1.0000
  H   H121      1.0  0.57061  0.40516  0.55049  1.0000
  H   H122      1.0  0.55369  0.42972  0.59001  1.0000
  H   H123      1.0  0.55369  0.38060  0.59001  1.0000
  H   H124      1.0  0.61900  0.42812  0.58981  1.0000
  H   H125      1.0  0.61900  0.38220  0.58981  1.0000
  H   H126      1.0  0.60386  0.40516  0.62646  1.0000
  H   H127      1.0  0.73928  0.40516  0.55049  1.0000
  H   H128      1.0  0.72235  0.42972  0.59001  1.0000
  H   H129      1.0  0.72235  0.38060  0.59001  1.0000
  H   H130      1.0  0.78766  0.42812  0.58981  1.0000
  H   H131      1.0  0.78766  0.38220  0.58981  1.0000
  H   H132      1.0  0.77253  0.40516  0.62646  1.0000
  H   H133      1.0  0.23328  0.57573  0.55049  1.0000
  H   H134      1.0  0.21636  0.60029  0.59001  1.0000
  H   H135      1.0  0.21636  0.55117  0.59001  1.0000
  H   H136      1.0  0.28167  0.59869  0.58981  1.0000
  H   H137      1.0  0.28167  0.55277  0.58981  1.0000
  H   H138      1.0  0.26653  0.57573  0.62646  1.0000
  H   H139      1.0  0.40195  0.57573  0.55049  1.0000
  H   H140      1.0  0.38502  0.60029  0.59001  1.0000
  H   H141      1.0  0.38502  0.55117  0.59001  1.0000
  H   H142      1.0  0.45033  0.59869  0.58981  1.0000
  H   H143      1.0  0.45033  0.55277  0.58981  1.0000
  H   H144      1.0  0.43520  0.57573  0.62646  1.0000
  H   H145      1.0  0.57062  0.57573  0.55049  1.0000
  H   H146      1.0  0.55369  0.60029  0.59001  1.0000
  H   H147      1.0  0.55369  0.55117  0.59001  1.0000
  H   H148      1.0  0.61900  0.59869  0.58981  1.0000
  H   H149      1.0  0.61900  0.55277  0.58981  1.0000
  H   H150      1.0  0.60386  0.57573  0.62646  1.0000
  H   H151      1.0  0.73928  0.57573  0.55049  1.0000
  H   H152      1.0  0.72235  0.60029  0.59001  1.0000
  H   H153      1.0  0.72235  0.55117  0.59001  1.0000
  H   H154      1.0  0.78766  0.59869  0.58981  1.0000
  H   H155      1.0  0.78766  0.55277  0.58981  1.0000
  H   H156      1.0  0.77253  0.57573  0.62646  1.0000
  H   H157      1.0  0.40195  0.74630  0.55049  1.0000
  H   H158      1.0  0.38502  0.77086  0.59001  1.0000
  H   H159      1.0  0.38502  0.72174  0.59001  1.0000
  H   H160      1.0  0.45033  0.76926  0.58981  1.0000
  H   H161      1.0  0.45033  0.72334  0.58981  1.0000
  H   H162      1.0  0.43520  0.74630  0.62646  1.0000
  H   H163      1.0  0.57062  0.74630  0.55049  1.0000
  H   H164      1.0  0.55369  0.77086  0.59001  1.0000
  H   H165      1.0  0.55369  0.72174  0.59001  1.0000
  H   H166      1.0  0.61900  0.76926  0.58981  1.0000
  H   H167      1.0  0.61900  0.72334  0.58981  1.0000
  H   H168      1.0  0.60386  0.74630  0.62646  1.0000
  H   H169      1.0  0.40597  0.40516  0.72744  1.0000
  H   H170      1.0  0.38904  0.42972  0.76696  1.0000
  H   H171      1.0  0.38904  0.38060  0.76696  1.0000
  H   H172      1.0  0.45435  0.42812  0.76676  1.0000
  H   H173      1.0  0.45435  0.38220  0.76676  1.0000
  H   H174      1.0  0.43922  0.40516  0.80340  1.0000
  H   H175      1.0  0.57464  0.40516  0.72744  1.0000
  H   H176      1.0  0.55771  0.42972  0.76696  1.0000
  H   H177      1.0  0.55771  0.38060  0.76696  1.0000
  H   H178      1.0  0.62302  0.42812  0.76676  1.0000
  H   H179      1.0  0.62302  0.38220  0.76676  1.0000
  H   H180      1.0  0.60788  0.40516  0.80340  1.0000
  H   H181      1.0  0.40597  0.57573  0.72744  1.0000
  H   H182      1.0  0.38904  0.60029  0.76696  1.0000
  H   H183      1.0  0.38904  0.55117  0.76696  1.0000
  H   H184      1.0  0.45435  0.59869  0.76676  1.0000
  H   H185      1.0  0.45435  0.55277  0.76676  1.0000
  H   H186      1.0  0.43922  0.57573  0.80340  1.0000
  H   H187      1.0  0.57464  0.57573  0.72744  1.0000
  H   H188      1.0  0.55771  0.60029  0.76696  1.0000
  H   H189      1.0  0.55771  0.55117  0.76696  1.0000
  H   H190      1.0  0.62302  0.59869  0.76676  1.0000
  H   H191      1.0  0.62302  0.55277  0.76676  1.0000
  H   H192      1.0  0.60788  0.57573  0.80340  1.0000
  H   H193      1.0  0.14733  0.32050  0.23017  1.0000
  O   O1        1.0  0.16609  0.30139  0.23017  1.0000
  H   H194      1.0  0.18484  0.32050  0.23017  1.0000
  H   H195      1.0  0.14733  0.32050  0.30726  1.0000
  O   O2        1.0  0.16609  0.30139  0.30726  1.0000
  H   H196      1.0  0.18484  0.32050  0.30726  1.0000
  H   H197      1.0  0.14733  0.32050  0.38436  1.0000
  O   O3        1.0  0.16609  0.30139  0.38436  1.0000
  H   H198      1.0  0.18484  0.32050  0.38436  1.0000
  H   H199      1.0  0.14733  0.32050  0.46145  1.0000
  O   O4        1.0  0.16609  0.30139  0.46145  1.0000
  H   H200      1.0  0.18484  0.32050  0.46145  1.0000
  H   H201      1.0  0.14733  0.32050  0.53855  1.0000
  O   O5        1.0  0.16609  0.30139  0.53855  1.0000
  H   H202      1.0  0.18484  0.32050  0.53855  1.0000
  H   H203      1.0  0.14733  0.32050  0.61564  1.0000
  O   O6        1.0  0.16609  0.30139  0.61564  1.0000
  H   H204      1.0  0.18484  0.32050  0.61564  1.0000
  H   H205      1.0  0.14733  0.32050  0.69274  1.0000
  O   O7        1.0  0.16609  0.30139  0.69274  1.0000
  H   H206      1.0  0.18484  0.32050  0.69274  1.0000
  H   H207      1.0  0.14733  0.32050  0.76983  1.0000
  O   O8        1.0  0.16609  0.30139  0.76983  1.0000
  H   H208      1.0  0.18484  0.32050  0.76983  1.0000
  H   H209      1.0  0.14733  0.39612  0.23017  1.0000
  O   O9        1.0  0.16609  0.37701  0.23017  1.0000
  H   H210      1.0  0.18484  0.39612  0.23017  1.0000
  H   H211      1.0  0.14733  0.39612  0.30726  1.0000
  O   O10       1.0  0.16609  0.37701  0.30726  1.0000
  H   H212      1.0  0.18484  0.39612  0.30726  1.0000
  H   H213      1.0  0.14733  0.39612  0.53855  1.0000
  O   O11       1.0  0.16609  0.37701  0.53855  1.0000
  H   H214      1.0  0.18484  0.39612  0.53855  1.0000
  H   H215      1.0  0.14733  0.39612  0.69274  1.0000
  O   O12       1.0  0.16609  0.37701  0.69274  1.0000
  H   H216      1.0  0.18484  0.39612  0.69274  1.0000
  H   H217      1.0  0.14733  0.39612  0.76983  1.0000
  O   O13       1.0  0.16609  0.37701  0.76983  1.0000
  H   H218      1.0  0.18484  0.39612  0.76983  1.0000
  H   H219      1.0  0.14733  0.47174  0.23017  1.0000
  O   O14       1.0  0.16609  0.45263  0.23017  1.0000
  H   H220      1.0  0.18484  0.47174  0.23017  1.0000
  H   H221      1.0  0.14733  0.47174  0.30726  1.0000
  O   O15       1.0  0.16609  0.45263  0.30726  1.0000
  H   H222      1.0  0.18484  0.47174  0.30726  1.0000
  H   H223      1.0  0.14733  0.47174  0.46145  1.0000
  O   O16       1.0  0.16609  0.45263  0.46145  1.0000
  H   H224      1.0  0.18484  0.47174  0.46145  1.0000
  H   H225      1.0  0.14733  0.47174  0.53855  1.0000
  O   O17       1.0  0.16609  0.45263  0.53855  1.0000
  H   H226      1.0  0.18484  0.47174  0.53855  1.0000
  H   H227      1.0  0.14733  0.47174  0.69274  1.0000
  O   O18       1.0  0.16609  0.45263  0.69274  1.0000
  H   H228      1.0  0.18484  0.47174  0.69274  1.0000
  H   H229      1.0  0.14733  0.47174  0.76983  1.0000
  O   O19       1.0  0.16609  0.45263  0.76983  1.0000
  H   H230      1.0  0.18484  0.47174  0.76983  1.0000
  H   H231      1.0  0.14733  0.54737  0.23017  1.0000
  O   O20       1.0  0.16609  0.52826  0.23017  1.0000
  H   H232      1.0  0.18484  0.54737  0.23017  1.0000
  H   H233      1.0  0.14733  0.54737  0.30726  1.0000
  O   O21       1.0  0.16609  0.52826  0.30726  1.0000
  H   H234      1.0  0.18484  0.54737  0.30726  1.0000
  H   H235      1.0  0.14733  0.54737  0.46145  1.0000
  O   O22       1.0  0.16609  0.52826  0.46145  1.0000
  H   H236      1.0  0.18484  0.54737  0.46145  1.0000
  H   H237      1.0  0.14733  0.54737  0.53855  1.0000
  O   O23       1.0  0.16609  0.52826  0.53855  1.0000
  H   H238      1.0  0.18484  0.54737  0.53855  1.0000
  H   H239      1.0  0.14733  0.54737  0.69274  1.0000
  O   O24       1.0  0.16609  0.52826  0.69274  1.0000
  H   H240      1.0  0.18484  0.54737  0.69274  1.0000
  H   H241      1.0  0.14733  0.54737  0.76983  1.0000
  O   O25       1.0  0.16609  0.52826  0.76983  1.0000
  H   H242      1.0  0.18484  0.54737  0.76983  1.0000
  H   H243      1.0  0.14733  0.62299  0.23017  1.0000
  O   O26       1.0  0.16609  0.60388  0.23017  1.0000
  H   H244      1.0  0.18484  0.62299  0.23017  1.0000
  H   H245      1.0  0.14733  0.62299  0.30726  1.0000
  O   O27       1.0  0.16609  0.60388  0.30726  1.0000
  H   H246      1.0  0.18484  0.62299  0.30726  1.0000
  H   H247      1.0  0.14733  0.62299  0.53855  1.0000
  O   O28       1.0  0.16609  0.60388  0.53855  1.0000
  H   H248      1.0  0.18484  0.62299  0.53855  1.0000
  H   H249      1.0  0.14733  0.62299  0.69274  1.0000
  O   O29       1.0  0.16609  0.60388  0.69274  1.0000
  H   H250      1.0  0.18484  0.62299  0.69274  1.0000
  H   H251      1.0  0.14733  0.62299  0.76983  1.0000
  O   O30       1.0  0.16609  0.60388  0.76983  1.0000
  H   H252      1.0  0.18484  0.62299  0.76983  1.0000
  H   H253      1.0  0.14733  0.69861  0.23017  1.0000
  O   O31       1.0  0.16609  0.67950  0.23017  1.0000
  H   H254      1.0  0.18484  0.69861  0.23017  1.0000
  H   H255      1.0  0.14733  0.69861  0.30726  1.0000
  O   O32       1.0  0.16609  0.67950  0.30726  1.0000
  H   H256      1.0  0.18484  0.69861  0.30726  1.0000
  H   H257      1.0  0.14733  0.69861  0.38436  1.0000
  O   O33       1.0  0.16609  0.67950  0.38436  1.0000
  H   H258      1.0  0.18484  0.69861  0.38436  1.0000
  H   H259      1.0  0.14733  0.69861  0.46145  1.0000
  O   O34       1.0  0.16609  0.67950  0.46145  1.0000
  H   H260      1.0  0.18484  0.69861  0.46145  1.0000
  H   H261      1.0  0.14733  0.69861  0.53855  1.0000
  O   O35       1.0  0.16609  0.67950  0.53855  1.0000
  H   H262      1.0  0.18484  0.69861  0.53855  1.0000
  H   H263      1.0  0.14733  0.69861  0.61564  1.0000
  O   O36       1.0  0.16609  0.67950  0.61564  1.0000
  H   H264      1.0  0.18484  0.69861  0.61564  1.0000
  H   H265      1.0  0.14733  0.69861  0.69274  1.0000
  O   O37       1.0  0.16609  0.67950  0.69274  1.0000
  H   H266      1.0  0.18484  0.69861  0.69274  1.0000
  H   H267      1.0  0.14733  0.69861  0.76983  1.0000
  O   O38       1.0  0.16609  0.67950  0.76983  1.0000
  H   H268      1.0  0.18484  0.69861  0.76983  1.0000
  H   H269      1.0  0.22154  0.24488  0.15308  1.0000
  O   O39       1.0  0.24029  0.22577  0.15308  1.0000
  H   H270      1.0  0.25904  0.24488  0.15308  1.0000
  H   H271      1.0  0.22154  0.24488  0.23017  1.0000
  O   O40       1.0  0.24029  0.22577  0.23017  1.0000
  H   H272      1.0  0.25904  0.24488  0.23017  1.0000
  H   H273      1.0  0.22154  0.24488  0.30726  1.0000
  O   O41       1.0  0.24029  0.22577  0.30726  1.0000
  H   H274      1.0  0.25904  0.24488  0.30726  1.0000
  H   H275      1.0  0.22154  0.24488  0.38436  1.0000
  O   O42       1.0  0.24029  0.22577  0.38436  1.0000
  H   H276      1.0  0.25904  0.24488  0.38436  1.0000
  H   H277      1.0  0.22154  0.24488  0.46145  1.0000
  O   O43       1.0  0.24029  0.22577  0.46145  1.0000
  H   H278      1.0  0.25904  0.24488  0.46145  1.0000
  H   H279      1.0  0.22154  0.24488  0.53855  1.0000
  O   O44       1.0  0.24029  0.22577  0.53855  1.0000
  H   H280      1.0  0.25904  0.24488  0.53855  1.0000
  H   H281      1.0  0.22154  0.24488  0.61564  1.0000
  O   O45       1.0  0.24029  0.22577  0.61564  1.0000
  H   H282      1.0  0.25904  0.24488  0.61564  1.0000
  H   H283      1.0  0.22154  0.24488  0.69274  1.0000
  O   O46       1.0  0.24029  0.22577  0.69274  1.0000
  H   H284      1.0  0.25904  0.24488  0.69274  1.0000
  H   H285      1.0  0.22154  0.24488  0.76983  1.0000
  O   O47       1.0  0.24029  0.22577  0.76983  1.0000
  H   H286      1.0  0.25904  0.24488  0.76983  1.0000
  H   H287      1.0  0.22154  0.24488  0.84692  1.0000
  O   O48       1.0  0.24029  0.22577  0.84692  1.0000
  H   H288      1.0  0.25904  0.24488  0.84692  1.0000
  H   H289      1.0  0.22154  0.32050  0.15308  1.0000
  O   O49       1.0  0.24029  0.30139  0.15308  1.0000
  H   H290      1.0  0.25904  0.32050  0.15308  1.0000
  H   H291      1.0  0.22154  0.32050  0.23017  1.0000
  O   O50       1.0  0.24029  0.30139  0.23017  1.0000
  H   H292      1.0  0.25904  0.32050  0.23017  1.0000
  H   H293      1.0  0.22154  0.32050  0.38436  1.0000
  O   O51       1.0  0.24029  0.30139  0.38436  1.0000
  H   H294      1.0  0.25904  0.32050  0.38436  1.0000
  H   H295      1.0  0.22154  0.32050  0.76983  1.0000
  O   O52       1.0  0.24029  0.30139  0.76983  1.0000
  H   H296      1.0  0.25904  0.32050  0.76983  1.0000
  H   H297      1.0  0.22154  0.32050  0.84692  1.0000
  O   O53       1.0  0.24029  0.30139  0.84692  1.0000
  H   H298      1.0  0.25904  0.32050  0.84692  1.0000
  H   H299      1.0  0.22154  0.39612  0.15308  1.0000
  O   O54       1.0  0.24029  0.37701  0.15308  1.0000
  H   H300      1.0  0.25904  0.39612  0.15308  1.0000
  H   H301      1.0  0.22154  0.39612  0.23017  1.0000
  O   O55       1.0  0.24029  0.37701  0.23017  1.0000
  H   H302      1.0  0.25904  0.39612  0.23017  1.0000
  H   H303      1.0  0.22154  0.39612  0.76983  1.0000
  O   O56       1.0  0.24029  0.37701  0.76983  1.0000
  H   H304      1.0  0.25904  0.39612  0.76983  1.0000
  H   H305      1.0  0.22154  0.39612  0.84692  1.0000
  O   O57       1.0  0.24029  0.37701  0.84692  1.0000
  H   H306      1.0  0.25904  0.39612  0.84692  1.0000
  H   H307      1.0  0.22154  0.47174  0.15308  1.0000
  O   O58       1.0  0.24029  0.45263  0.15308  1.0000
  H   H308      1.0  0.25904  0.47174  0.15308  1.0000
  H   H309      1.0  0.22154  0.47174  0.23017  1.0000
  O   O59       1.0  0.24029  0.45263  0.23017  1.0000
  H   H310      1.0  0.25904  0.47174  0.23017  1.0000
  H   H311      1.0  0.22154  0.47174  0.76983  1.0000
  O   O60       1.0  0.24029  0.45263  0.76983  1.0000
  H   H312      1.0  0.25904  0.47174  0.76983  1.0000
  H   H313      1.0  0.22154  0.47174  0.84692  1.0000
  O   O61       1.0  0.24029  0.45263  0.84692  1.0000
  H   H314      1.0  0.25904  0.47174  0.84692  1.0000
  H   H315      1.0  0.22154  0.54737  0.15308  1.0000
  O   O62       1.0  0.24029  0.52826  0.15308  1.0000
  H   H316      1.0  0.25904  0.54737  0.15308  1.0000
  H   H317      1.0  0.22154  0.54737  0.23017  1.0000
  O   O63       1.0  0.24029  0.52826  0.23017  1.0000
  H   H318      1.0  0.25904  0.54737  0.23017  1.0000
  H   H319      1.0  0.22154  0.54737  0.76983  1.0000
  O   O64       1.0  0.24029  0.52826  0.76983  1.0000
  H   H320      1.0  0.25904  0.54737  0.76983  1.0000
  H   H321      1.0  0.22154  0.54737  0.84692  1.0000
  O   O65       1.0  0.24029  0.52826  0.84692  1.0000
  H   H322      1.0  0.25904  0.54737  0.84692  1.0000
  H   H323      1.0  0.22154  0.62299  0.15308  1.0000
  O   O66       1.0  0.24029  0.60388  0.15308  1.0000
  H   H324      1.0  0.25904  0.62299  0.15308  1.0000
  H   H325      1.0  0.22154  0.62299  0.23017  1.0000
  O   O67       1.0  0.24029  0.60388  0.23017  1.0000
  H   H326      1.0  0.25904  0.62299  0.23017  1.0000
  H   H327      1.0  0.22154  0.62299  0.76983  1.0000
  O   O68       1.0  0.24029  0.60388  0.76983  1.0000
  H   H328      1.0  0.25904  0.62299  0.76983  1.0000
  H   H329      1.0  0.22154  0.62299  0.84692  1.0000
  O   O69       1.0  0.24029  0.60388  0.84692  1.0000
  H   H330      1.0  0.25904  0.62299  0.84692  1.0000
  H   H331      1.0  0.22154  0.69861  0.15308  1.0000
  O   O70       1.0  0.24029  0.67950  0.15308  1.0000
  H   H332      1.0  0.25904  0.69861  0.15308  1.0000
  H   H333      1.0  0.22154  0.69861  0.23017  1.0000
  O   O71       1.0  0.24029  0.67950  0.23017  1.0000
  H   H334      1.0  0.25904  0.69861  0.23017  1.0000
  H   H335      1.0  0.22154  0.69861  0.38436  1.0000
  O   O72       1.0  0.24029  0.67950  0.38436  1.0000
  H   H336      1.0  0.25904  0.69861  0.38436  1.0000
  H   H337      1.0  0.22154  0.69861  0.76983  1.0000
  O   O73       1.0  0.24029  0.67950  0.76983  1.0000
  H   H338      1.0  0.25904  0.69861  0.76983  1.0000
  H   H339      1.0  0.22154  0.69861  0.84692  1.0000
  O   O74       1.0  0.24029  0.67950  0.84692  1.0000
  H   H340      1.0  0.25904  0.69861  0.84692  1.0000
  H   H341      1.0  0.22154  0.77423  0.15308  1.0000
  O   O75       1.0  0.24029  0.75512  0.15308  1.0000
  H   H342      1.0  0.25904  0.77423  0.15308  1.0000
  H   H343      1.0  0.22154  0.77423  0.23017  1.0000
  O   O76       1.0  0.24029  0.75512  0.23017  1.0000
  H   H344      1.0  0.25904  0.77423  0.23017  1.0000
  H   H345      1.0  0.22154  0.77423  0.30726  1.0000
  O   O77       1.0  0.24029  0.75512  0.30726  1.0000
  H   H346      1.0  0.25904  0.77423  0.30726  1.0000
  H   H347      1.0  0.22154  0.77423  0.38436  1.0000
  O   O78       1.0  0.24029  0.75512  0.38436  1.0000
  H   H348      1.0  0.25904  0.77423  0.38436  1.0000
  H   H349      1.0  0.22154  0.77423  0.46145  1.0000
  O   O79       1.0  0.24029  0.75512  0.46145  1.0000
  H   H350      1.0  0.25904  0.77423  0.46145  1.0000
  H   H351      1.0  0.22154  0.77423  0.53855  1.0000
  O   O80       1.0  0.24029  0.75512  0.53855  1.0000
  H   H352      1.0  0.25904  0.77423  0.53855  1.0000
  H   H353      1.0  0.22154  0.77423  0.61564  1.0000
  O   O81       1.0  0.24029  0.75512  0.61564  1.0000
  H   H354      1.0  0.25904  0.77423  0.61564  1.0000
  H   H355      1.0  0.22154  0.77423  0.69274  1.0000
  O   O82       1.0  0.24029  0.75512  0.69274  1.0000
  H   H356      1.0  0.25904  0.77423  0.69274  1.0000
  H   H357      1.0  0.22154  0.77423  0.76983  1.0000
  O   O83       1.0  0.24029  0.75512  0.76983  1.0000
  H   H358      1.0  0.25904  0.77423  0.76983  1.0000
  H   H359      1.0  0.22154  0.77423  0.84692  1.0000
  O   O84       1.0  0.24029  0.75512  0.84692  1.0000
  H   H360      1.0  0.25904  0.77423  0.84692  1.0000
  H   H361      1.0  0.29574  0.16926  0.23017  1.0000
  O   O85       1.0  0.31449  0.15015  0.23017  1.0000
  H   H362      1.0  0.33324  0.16926  0.23017  1.0000
  H   H363      1.0  0.29574  0.16926  0.30726  1.0000
  O   O86       1.0  0.31449  0.15015  0.30726  1.0000
  H   H364      1.0  0.33324  0.16926  0.30726  1.0000
  H   H365      1.0  0.29574  0.16926  0.38436  1.0000
  O   O87       1.0  0.31449  0.15015  0.38436  1.0000
  H   H366      1.0  0.33324  0.16926  0.38436  1.0000
  H   H367      1.0  0.29574  0.16926  0.46145  1.0000
  O   O88       1.0  0.31449  0.15015  0.46145  1.0000
  H   H368      1.0  0.33324  0.16926  0.46145  1.0000
  H   H369      1.0  0.29574  0.16926  0.53855  1.0000
  O   O89       1.0  0.31449  0.15015  0.53855  1.0000
  H   H370      1.0  0.33324  0.16926  0.53855  1.0000
  H   H371      1.0  0.29574  0.16926  0.61564  1.0000
  O   O90       1.0  0.31449  0.15015  0.61564  1.0000
  H   H372      1.0  0.33324  0.16926  0.61564  1.0000
  H   H373      1.0  0.29574  0.16926  0.69274  1.0000
  O   O91       1.0  0.31449  0.15015  0.69274  1.0000
  H   H374      1.0  0.33324  0.16926  0.69274  1.0000
  H   H375      1.0  0.29574  0.16926  0.76983  1.0000
  O   O92       1.0  0.31449  0.15015  0.76983  1.0000
  H   H376      1.0  0.33324  0.16926  0.76983  1.0000
  H   H377      1.0  0.29574  0.24488  0.15308  1.0000
  O   O93       1.0  0.31449  0.22577  0.15308  1.0000
  H   H378      1.0  0.33324  0.24488  0.15308  1.0000
  H   H379      1.0  0.29574  0.24488  0.23017  1.0000
  O   O94       1.0  0.31449  0.22577  0.23017  1.0000
  H   H380      1.0  0.33324  0.24488  0.23017  1.0000
  H   H381      1.0  0.29574  0.24488  0.76983  1.0000
  O   O95       1.0  0.31449  0.22577  0.76983  1.0000
  H   H382      1.0  0.33324  0.24488  0.76983  1.0000
  H   H383      1.0  0.29574  0.24488  0.84692  1.0000
  O   O96       1.0  0.31449  0.22577  0.84692  1.0000
  H   H384      1.0  0.33324  0.24488  0.84692  1.0000
  H   H385      1.0  0.29574  0.32050  0.15308  1.0000
  O   O97       1.0  0.31449  0.30139  0.15308  1.0000
  H   H386      1.0  0.33324  0.32050  0.15308  1.0000
  H   H387      1.0  0.29574  0.32050  0.84692  1.0000
  O   O98       1.0  0.31449  0.30139  0.84692  1.0000
  H   H388      1.0  0.33324  0.32050  0.84692  1.0000
  H   H389      1.0  0.29574  0.39612  0.15308  1.0000
  O   O99       1.0  0.31449  0.37701  0.15308  1.0000
  H   H390      1.0  0.33324  0.39612  0.15308  1.0000
  H   H391      1.0  0.29574  0.39612  0.84692  1.0000
  O   O100      1.0  0.31449  0.37701  0.84692  1.0000
  H   H392      1.0  0.33324  0.39612  0.84692  1.0000
  H   H393      1.0  0.29574  0.47174  0.15308  1.0000
  O   O101      1.0  0.31449  0.45263  0.15308  1.0000
  H   H394      1.0  0.33324  0.47174  0.15308  1.0000
  H   H395      1.0  0.29574  0.47174  0.84692  1.0000
  O   O102      1.0  0.31449  0.45263  0.84692  1.0000
  H   H396      1.0  0.33324  0.47174  0.84692  1.0000
  H   H397      1.0  0.29574  0.54737  0.15308  1.0000
  O   O103      1.0  0.31449  0.52826  0.15308  1.0000
  H   H398      1.0  0.33324  0.54737  0.15308  1.0000
  H   H399      1.0  0.29574  0.54737  0.84692  1.0000
  O   O104      1.0  0.31449  0.52826  0.84692  1.0000
  H   H400      1.0  0.33324  0.54737  0.84692  1.0000
  H   H401      1.0  0.29574  0.62299  0.15308  1.0000
  O   O105      1.0  0.31449  0.60388  0.15308  1.0000
  H   H402      1.0  0.33324  0.62299  0.15308  1.0000
  H   H403      1.0  0.29574  0.62299  0.84692  1.0000
  O   O106      1.0  0.31449  0.60388  0.84692  1.0000
  H   H404      1.0  0.33324  0.62299  0.84692  1.0000
  H   H405      1.0  0.29574  0.69861  0.15308  1.0000
  O   O107      1.0  0.31449  0.67950  0.15308  1.0000
  H   H406      1.0  0.33324  0.69861  0.15308  1.0000
  H   H407      1.0  0.29574  0.69861  0.84692  1.0000
  O   O108      1.0  0.31449  0.67950  0.84692  1.0000
  H   H408      1.0  0.33324  0.69861  0.84692  1.0000
  H   H409      1.0  0.29574  0.77423  0.15308  1.0000
  O   O109      1.0  0.31449  0.75512  0.15308  1.0000
  H   H410      1.0  0.33324  0.77423  0.15308  1.0000
  H   H411      1.0  0.29574  0.77423  0.23017  1.0000
  O   O110      1.0  0.31449  0.75512  0.23017  1.0000
  H   H412      1.0  0.33324  0.77423  0.23017  1.0000
  H   H413      1.0  0.29574  0.77423  0.76983  1.0000
  O   O111      1.0  0.31449  0.75512  0.76983  1.0000
  H   H414      1.0  0.33324  0.77423  0.76983  1.0000
  H   H415      1.0  0.29574  0.77423  0.84692  1.0000
  O   O112      1.0  0.31449  0.75512  0.84692  1.0000
  H   H416      1.0  0.33324  0.77423  0.84692  1.0000
  H   H417      1.0  0.29574  0.84985  0.23017  1.0000
  O   O113      1.0  0.31449  0.83074  0.23017  1.0000
  H   H418      1.0  0.33324  0.84985  0.23017  1.0000
  H   H419      1.0  0.29574  0.84985  0.30726  1.0000
  O   O114      1.0  0.31449  0.83074  0.30726  1.0000
  H   H420      1.0  0.33324  0.84985  0.30726  1.0000
  H   H421      1.0  0.29574  0.84985  0.38436  1.0000
  O   O115      1.0  0.31449  0.83074  0.38436  1.0000
  H   H422      1.0  0.33324  0.84985  0.38436  1.0000
  H   H423      1.0  0.29574  0.84985  0.46145  1.0000
  O   O116      1.0  0.31449  0.83074  0.46145  1.0000
  H   H424      1.0  0.33324  0.84985  0.46145  1.0000
  H   H425      1.0  0.29574  0.84985  0.53855  1.0000
  O   O117      1.0  0.31449  0.83074  0.53855  1.0000
  H   H426      1.0  0.33324  0.84985  0.53855  1.0000
  H   H427      1.0  0.29574  0.84985  0.61564  1.0000
  O   O118      1.0  0.31449  0.83074  0.61564  1.0000
  H   H428      1.0  0.33324  0.84985  0.61564  1.0000
  H   H429      1.0  0.29574  0.84985  0.69274  1.0000
  O   O119      1.0  0.31449  0.83074  0.69274  1.0000
  H   H430      1.0  0.33324  0.84985  0.69274  1.0000
  H   H431      1.0  0.29574  0.84985  0.76983  1.0000
  O   O120      1.0  0.31449  0.83074  0.76983  1.0000
  H   H432      1.0  0.33324  0.84985  0.76983  1.0000
  H   H433      1.0  0.36994  0.16926  0.23017  1.0000
  O   O121      1.0  0.38870  0.15015  0.23017  1.0000
  H   H434      1.0  0.40745  0.16926  0.23017  1.0000
  H   H435      1.0  0.36994  0.16926  0.30726  1.0000
  O   O122      1.0  0.38870  0.15015  0.30726  1.0000
  H   H436      1.0  0.40745  0.16926  0.30726  1.0000
  H   H437      1.0  0.36994  0.16926  0.46145  1.0000
  O   O123      1.0  0.38870  0.15015  0.46145  1.0000
  H   H438      1.0  0.40745  0.16926  0.46145  1.0000
  H   H439      1.0  0.36994  0.16926  0.53855  1.0000
  O   O124      1.0  0.38870  0.15015  0.53855  1.0000
  H   H440      1.0  0.40745  0.16926  0.53855  1.0000
  H   H441      1.0  0.36994  0.16926  0.69274  1.0000
  O   O125      1.0  0.38870  0.15015  0.69274  1.0000
  H   H442      1.0  0.40745  0.16926  0.69274  1.0000
  H   H443      1.0  0.36994  0.16926  0.76983  1.0000
  O   O126      1.0  0.38870  0.15015  0.76983  1.0000
  H   H444      1.0  0.40745  0.16926  0.76983  1.0000
  H   H445      1.0  0.36994  0.24488  0.15308  1.0000
  O   O127      1.0  0.38870  0.22577  0.15308  1.0000
  H   H446      1.0  0.40745  0.24488  0.15308  1.0000
  H   H447      1.0  0.36994  0.24488  0.23017  1.0000
  O   O128      1.0  0.38870  0.22577  0.23017  1.0000
  H   H448      1.0  0.40745  0.24488  0.23017  1.0000
  H   H449      1.0  0.36994  0.24488  0.69274  1.0000
  O   O129      1.0  0.38870  0.22577  0.69274  1.0000
  H   H450      1.0  0.40745  0.24488  0.69274  1.0000
  H   H451      1.0  0.36994  0.24488  0.76983  1.0000
  O   O130      1.0  0.38870  0.22577  0.76983  1.0000
  H   H452      1.0  0.40745  0.24488  0.76983  1.0000
  H   H453      1.0  0.36994  0.24488  0.84692  1.0000
  O   O131      1.0  0.38870  0.22577  0.84692  1.0000
  H   H454      1.0  0.40745  0.24488  0.84692  1.0000
  H   H455      1.0  0.36994  0.32050  0.15308  1.0000
  O   O132      1.0  0.38870  0.30139  0.15308  1.0000
  H   H456      1.0  0.40745  0.32050  0.15308  1.0000
  H   H457      1.0  0.36994  0.32050  0.23017  1.0000
  O   O133      1.0  0.38870  0.30139  0.23017  1.0000
  H   H458      1.0  0.40745  0.32050  0.23017  1.0000
  H   H459      1.0  0.36994  0.32050  0.76983  1.0000
  O   O134      1.0  0.38870  0.30139  0.76983  1.0000
  H   H460      1.0  0.40745  0.32050  0.76983  1.0000
  H   H461      1.0  0.36994  0.32050  0.84692  1.0000
  O   O135      1.0  0.38870  0.30139  0.84692  1.0000
  H   H462      1.0  0.40745  0.32050  0.84692  1.0000
  H   H463      1.0  0.36994  0.39612  0.84692  1.0000
  O   O136      1.0  0.38870  0.37701  0.84692  1.0000
  H   H464      1.0  0.40745  0.39612  0.84692  1.0000
  H   H465      1.0  0.36994  0.47174  0.84692  1.0000
  O   O137      1.0  0.38870  0.45263  0.84692  1.0000
  H   H466      1.0  0.40745  0.47174  0.84692  1.0000
  H   H467      1.0  0.36994  0.54737  0.84692  1.0000
  O   O138      1.0  0.38870  0.52826  0.84692  1.0000
  H   H468      1.0  0.40745  0.54737  0.84692  1.0000
  H   H469      1.0  0.36994  0.62299  0.84692  1.0000
  O   O139      1.0  0.38870  0.60388  0.84692  1.0000
  H   H470      1.0  0.40745  0.62299  0.84692  1.0000
  H   H471      1.0  0.36994  0.69861  0.15308  1.0000
  O   O140      1.0  0.38870  0.67950  0.15308  1.0000
  H   H472      1.0  0.40745  0.69861  0.15308  1.0000
  H   H473      1.0  0.36994  0.69861  0.23017  1.0000
  O   O141      1.0  0.38870  0.67950  0.23017  1.0000
  H   H474      1.0  0.40745  0.69861  0.23017  1.0000
  H   H475      1.0  0.36994  0.69861  0.76983  1.0000
  O   O142      1.0  0.38870  0.67950  0.76983  1.0000
  H   H476      1.0  0.40745  0.69861  0.76983  1.0000
  H   H477      1.0  0.36994  0.69861  0.84692  1.0000
  O   O143      1.0  0.38870  0.67950  0.84692  1.0000
  H   H478      1.0  0.40745  0.69861  0.84692  1.0000
  H   H479      1.0  0.36994  0.77423  0.15308  1.0000
  O   O144      1.0  0.38870  0.75512  0.15308  1.0000
  H   H480      1.0  0.40745  0.77423  0.15308  1.0000
  H   H481      1.0  0.36994  0.77423  0.23017  1.0000
  O   O145      1.0  0.38870  0.75512  0.23017  1.0000
  H   H482      1.0  0.40745  0.77423  0.23017  1.0000
  H   H483      1.0  0.36994  0.77423  0.69274  1.0000
  O   O146      1.0  0.38870  0.75512  0.69274  1.0000
  H   H484      1.0  0.40745  0.77423  0.69274  1.0000
  H   H485      1.0  0.36994  0.77423  0.76983  1.0000
  O   O147      1.0  0.38870  0.75512  0.76983  1.0000
  H   H486      1.0  0.40745  0.77423  0.76983  1.0000
  H   H487      1.0  0.36994  0.77423  0.84692  1.0000
  O   O148      1.0  0.38870  0.75512  0.84692  1.0000
  H   H488      1.0  0.40745  0.77423  0.84692  1.0000
  H   H489      1.0  0.36994  0.84985  0.23017  1.0000
  O   O149      1.0  0.38870  0.83074  0.23017  1.0000
  H   H490      1.0  0.40745  0.84985  0.23017  1.0000
  H   H491      1.0  0.36994  0.84985  0.30726  1.0000
  O   O150      1.0  0.38870  0.83074  0.30726  1.0000
  H   H492      1.0  0.40745  0.84985  0.30726  1.0000
  H   H493      1.0  0.36994  0.84985  0.46145  1.0000
  O   O151      1.0  0.38870  0.83074  0.46145  1.0000
  H   H494      1.0  0.40745  0.84985  0.46145  1.0000
  H   H495      1.0  0.36994  0.84985  0.53855  1.0000
  O   O152      1.0  0.38870  0.83074  0.53855  1.0000
  H   H496      1.0  0.40745  0.84985  0.53855  1.0000
  H   H497      1.0  0.36994  0.84985  0.69274  1.0000
  O   O153      1.0  0.38870  0.83074  0.69274  1.0000
  H   H498      1.0  0.40745  0.84985  0.69274  1.0000
  H   H499      1.0  0.36994  0.84985  0.76983  1.0000
  O   O154      1.0  0.38870  0.83074  0.76983  1.0000
  H   H500      1.0  0.40745  0.84985  0.76983  1.0000
  H   H501      1.0  0.44415  0.16926  0.23017  1.0000
  O   O155      1.0  0.46290  0.15015  0.23017  1.0000
  H   H502      1.0  0.48165  0.16926  0.23017  1.0000
  H   H503      1.0  0.44415  0.16926  0.30726  1.0000
  O   O156      1.0  0.46290  0.15015  0.30726  1.0000
  H   H504      1.0  0.48165  0.16926  0.30726  1.0000
  H   H505      1.0  0.44415  0.16926  0.38436  1.0000
  O   O157      1.0  0.46290  0.15015  0.38436  1.0000
  H   H506      1.0  0.48165  0.16926  0.38436  1.0000
  H   H507      1.0  0.44415  0.16926  0.46145  1.0000
  O   O158      1.0  0.46290  0.15015  0.46145  1.0000
  H   H508      1.0  0.48165  0.16926  0.46145  1.0000
  H   H509      1.0  0.44415  0.16926  0.53855  1.0000
  O   O159      1.0  0.46290  0.15015  0.53855  1.0000
  H   H510      1.0  0.48165  0.16926  0.53855  1.0000
  H   H511      1.0  0.44415  0.16926  0.69274  1.0000
  O   O160      1.0  0.46290  0.15015  0.69274  1.0000
  H   H512      1.0  0.48165  0.16926  0.69274  1.0000
  H   H513      1.0  0.44415  0.16926  0.76983  1.0000
  O   O161      1.0  0.46290  0.15015  0.76983  1.0000
  H   H514      1.0  0.48165  0.16926  0.76983  1.0000
  H   H515      1.0  0.44415  0.24488  0.15308  1.0000
  O   O162      1.0  0.46290  0.22577  0.15308  1.0000
  H   H516      1.0  0.48165  0.24488  0.15308  1.0000
  H   H517      1.0  0.44415  0.24488  0.23017  1.0000
  O   O163      1.0  0.46290  0.22577  0.23017  1.0000
  H   H518      1.0  0.48165  0.24488  0.23017  1.0000
  H   H519      1.0  0.44415  0.24488  0.76983  1.0000
  O   O164      1.0  0.46290  0.22577  0.76983  1.0000
  H   H520      1.0  0.48165  0.24488  0.76983  1.0000
  H   H521      1.0  0.44415  0.24488  0.84692  1.0000
  O   O165      1.0  0.46290  0.22577  0.84692  1.0000
  H   H522      1.0  0.48165  0.24488  0.84692  1.0000
  H   H523      1.0  0.44415  0.32050  0.15308  1.0000
  O   O166      1.0  0.46290  0.30139  0.15308  1.0000
  H   H524      1.0  0.48165  0.32050  0.15308  1.0000
  H   H525      1.0  0.44415  0.32050  0.84692  1.0000
  O   O167      1.0  0.46290  0.30139  0.84692  1.0000
  H   H526      1.0  0.48165  0.32050  0.84692  1.0000
  H   H527      1.0  0.44415  0.39612  0.15308  1.0000
  O   O168      1.0  0.46290  0.37701  0.15308  1.0000
  H   H528      1.0  0.48165  0.39612  0.15308  1.0000
  H   H529      1.0  0.44415  0.47174  0.15308  1.0000
  O   O169      1.0  0.46290  0.45263  0.15308  1.0000
  H   H530      1.0  0.48165  0.47174  0.15308  1.0000
  H   H531      1.0  0.44415  0.47174  0.84692  1.0000
  O   O170      1.0  0.46290  0.45263  0.84692  1.0000
  H   H532      1.0  0.48165  0.47174  0.84692  1.0000
  H   H533      1.0  0.44415  0.54737  0.15308  1.0000
  O   O171      1.0  0.46290  0.52826  0.15308  1.0000
  H   H534      1.0  0.48165  0.54737  0.15308  1.0000
  H   H535      1.0  0.44415  0.54737  0.84692  1.0000
  O   O172      1.0  0.46290  0.52826  0.84692  1.0000
  H   H536      1.0  0.48165  0.54737  0.84692  1.0000
  H   H537      1.0  0.44415  0.62299  0.15308  1.0000
  O   O173      1.0  0.46290  0.60388  0.15308  1.0000
  H   H538      1.0  0.48165  0.62299  0.15308  1.0000
  H   H539      1.0  0.44415  0.69861  0.15308  1.0000
  O   O174      1.0  0.46290  0.67950  0.15308  1.0000
  H   H540      1.0  0.48165  0.69861  0.15308  1.0000
  H   H541      1.0  0.44415  0.69861  0.84692  1.0000
  O   O175      1.0  0.46290  0.67950  0.84692  1.0000
  H   H542      1.0  0.48165  0.69861  0.84692  1.0000
  H   H543      1.0  0.44415  0.77423  0.15308  1.0000
  O   O176      1.0  0.46290  0.75512  0.15308  1.0000
  H   H544      1.0  0.48165  0.77423  0.15308  1.0000
  H   H545      1.0  0.44415  0.77423  0.23017  1.0000
  O   O177      1.0  0.46290  0.75512  0.23017  1.0000
  H   H546      1.0  0.48165  0.77423  0.23017  1.0000
  H   H547      1.0  0.44415  0.77423  0.76983  1.0000
  O   O178      1.0  0.46290  0.75512  0.76983  1.0000
  H   H548      1.0  0.48165  0.77423  0.76983  1.0000
  H   H549      1.0  0.44415  0.77423  0.84692  1.0000
  O   O179      1.0  0.46290  0.75512  0.84692  1.0000
  H   H550      1.0  0.48165  0.77423  0.84692  1.0000
  H   H551      1.0  0.44415  0.84985  0.23017  1.0000
  O   O180      1.0  0.46290  0.83074  0.23017  1.0000
  H   H552      1.0  0.48165  0.84985  0.23017  1.0000
  H   H553      1.0  0.44415  0.84985  0.30726  1.0000
  O   O181      1.0  0.46290  0.83074  0.30726  1.0000
  H   H554      1.0  0.48165  0.84985  0.30726  1.0000
  H   H555      1.0  0.44415  0.84985  0.38436  1.0000
  O   O182      1.0  0.46290  0.83074  0.38436  1.0000
  H   H556      1.0  0.48165  0.84985  0.38436  1.0000
  H   H557      1.0  0.44415  0.84985  0.46145  1.0000
  O   O183      1.0  0.46290  0.83074  0.46145  1.0000
  H   H558      1.0  0.48165  0.84985  0.46145  1.0000
  H   H559      1.0  0.44415  0.84985  0.53855  1.0000
  O   O184      1.0  0.46290  0.83074  0.53855  1.0000
  H   H560      1.0  0.48165  0.84985  0.53855  1.0000
  H   H561      1.0  0.44415  0.84985  0.69274  1.0000
  O   O185      1.0  0.46290  0.83074  0.69274  1.0000
  H   H562      1.0  0.48165  0.84985  0.69274  1.0000
  H   H563      1.0  0.44415  0.84985  0.76983  1.0000
  O   O186      1.0  0.46290  0.83074  0.76983  1.0000
  H   H564      1.0  0.48165  0.84985  0.76983  1.0000
  H   H565      1.0  0.51835  0.16926  0.23017  1.0000
  O   O187      1.0  0.53710  0.15015  0.23017  1.0000
  H   H566      1.0  0.55585  0.16926  0.23017  1.0000
  H   H567      1.0  0.51835  0.16926  0.30726  1.0000
  O   O188      1.0  0.53710  0.15015  0.30726  1.0000
  H   H568      1.0  0.55585  0.16926  0.30726  1.0000
  H   H569      1.0  0.51835  0.16926  0.46145  1.0000
  O   O189      1.0  0.53710  0.15015  0.46145  1.0000
  H   H570      1.0  0.55585  0.16926  0.46145  1.0000
  H   H571      1.0  0.51835  0.16926  0.53855  1.0000
  O   O190      1.0  0.53710  0.15015  0.53855  1.0000
  H   H572      1.0  0.55585  0.16926  0.53855  1.0000
  H   H573      1.0  0.51835  0.16926  0.69274  1.0000
  O   O191      1.0  0.53710  0.15015  0.69274  1.0000
  H   H574      1.0  0.55585  0.16926  0.69274  1.0000
  H   H575      1.0  0.51835  0.16926  0.76983  1.0000
  O   O192      1.0  0.53710  0.15015  0.76983  1.0000
  H   H576      1.0  0.55585  0.16926  0.76983  1.0000
  H   H577      1.0  0.51835  0.24488  0.15308  1.0000
  O   O193      1.0  0.53710  0.22577  0.15308  1.0000
  H   H578      1.0  0.55585  0.24488  0.15308  1.0000
  H   H579      1.0  0.51835  0.24488  0.23017  1.0000
  O   O194      1.0  0.53710  0.22577  0.23017  1.0000
  H   H580      1.0  0.55585  0.24488  0.23017  1.0000
  H   H581      1.0  0.51835  0.24488  0.76983  1.0000
  O   O195      1.0  0.53710  0.22577  0.76983  1.0000
  H   H582      1.0  0.55585  0.24488  0.76983  1.0000
  H   H583      1.0  0.51835  0.24488  0.84692  1.0000
  O   O196      1.0  0.53710  0.22577  0.84692  1.0000
  H   H584      1.0  0.55585  0.24488  0.84692  1.0000
  H   H585      1.0  0.51835  0.32050  0.15308  1.0000
  O   O197      1.0  0.53710  0.30139  0.15308  1.0000
  H   H586      1.0  0.55585  0.32050  0.15308  1.0000
  H   H587      1.0  0.51835  0.32050  0.84692  1.0000
  O   O198      1.0  0.53710  0.30139  0.84692  1.0000
  H   H588      1.0  0.55585  0.32050  0.84692  1.0000
  H   H589      1.0  0.51835  0.39612  0.84692  1.0000
  O   O199      1.0  0.53710  0.37701  0.84692  1.0000
  H   H590      1.0  0.55585  0.39612  0.84692  1.0000
  H   H591      1.0  0.51835  0.47174  0.15308  1.0000
  O   O200      1.0  0.53710  0.45263  0.15308  1.0000
  H   H592      1.0  0.55585  0.47174  0.15308  1.0000
  H   H593      1.0  0.51835  0.47174  0.84692  1.0000
  O   O201      1.0  0.53710  0.45263  0.84692  1.0000
  H   H594      1.0  0.55585  0.47174  0.84692  1.0000
  H   H595      1.0  0.51835  0.54737  0.15308  1.0000
  O   O202      1.0  0.53710  0.52826  0.15308  1.0000
  H   H596      1.0  0.55585  0.54737  0.15308  1.0000
  H   H597      1.0  0.51835  0.54737  0.84692  1.0000
  O   O203      1.0  0.53710  0.52826  0.84692  1.0000
  H   H598      1.0  0.55585  0.54737  0.84692  1.0000
  H   H599      1.0  0.51835  0.62299  0.84692  1.0000
  O   O204      1.0  0.53710  0.60388  0.84692  1.0000
  H   H600      1.0  0.55585  0.62299  0.84692  1.0000
  H   H601      1.0  0.51835  0.69861  0.15308  1.0000
  O   O205      1.0  0.53710  0.67950  0.15308  1.0000
  H   H602      1.0  0.55585  0.69861  0.15308  1.0000
  H   H603      1.0  0.51835  0.69861  0.84692  1.0000
  O   O206      1.0  0.53710  0.67950  0.84692  1.0000
  H   H604      1.0  0.55585  0.69861  0.84692  1.0000
  H   H605      1.0  0.51835  0.77423  0.15308  1.0000
  O   O207      1.0  0.53710  0.75512  0.15308  1.0000
  H   H606      1.0  0.55585  0.77423  0.15308  1.0000
  H   H607      1.0  0.51835  0.77423  0.23017  1.0000
  O   O208      1.0  0.53710  0.75512  0.23017  1.0000
  H   H608      1.0  0.55585  0.77423  0.23017  1.0000
  H   H609      1.0  0.51835  0.77423  0.76983  1.0000
  O   O209      1.0  0.53710  0.75512  0.76983  1.0000
  H   H610      1.0  0.55585  0.77423  0.76983  1.0000
  H   H611      1.0  0.51835  0.77423  0.84692  1.0000
  O   O210      1.0  0.53710  0.75512  0.84692  1.0000
  H   H612      1.0  0.55585  0.77423  0.84692  1.0000
  H   H613      1.0  0.51835  0.84985  0.23017  1.0000
  O   O211      1.0  0.53710  0.83074  0.23017  1.0000
  H   H614      1.0  0.55585  0.84985  0.23017  1.0000
  H   H615      1.0  0.51835  0.84985  0.30726  1.0000
  O   O212      1.0  0.53710  0.83074  0.30726  1.0000
  H   H616      1.0  0.55585  0.84985  0.30726  1.0000
  H   H617      1.0  0.51835  0.84985  0.46145  1.0000
  O   O213      1.0  0.53710  0.83074  0.46145  1.0000
  H   H618      1.0  0.55585  0.84985  0.46145  1.0000
  H   H619      1.0  0.51835  0.84985  0.53855  1.0000
  O   O214      1.0  0.53710  0.83074  0.53855  1.0000
  H   H620      1.0  0.55585  0.84985  0.53855  1.0000
  H   H621      1.0  0.51835  0.84985  0.69274  1.0000
  O   O215      1.0  0.53710  0.83074  0.69274  1.0000
  H   H622      1.0  0.55585  0.84985  0.69274  1.0000
  H   H623      1.0  0.51835  0.84985  0.76983  1.0000
  O   O216      1.0  0.53710  0.83074  0.76983  1.0000
  H   H624      1.0  0.55585  0.84985  0.76983  1.0000
  H   H625      1.0  0.59255  0.16926  0.23017  1.0000
  O   O217      1.0  0.61130  0.15015  0.23017  1.0000
  H   H626      1.0  0.63006  0.16926  0.23017  1.0000
  H   H627      1.0  0.59255  0.16926  0.30726  1.0000
  O   O218      1.0  0.61130  0.15015  0.30726  1.0000
  H   H628      1.0  0.63006  0.16926  0.30726  1.0000
  H   H629      1.0  0.59255  0.16926  0.46145  1.0000
  O   O219      1.0  0.61130  0.15015  0.46145  1.0000
  H   H630      1.0  0.63006  0.16926  0.46145  1.0000
  H   H631      1.0  0.59255  0.16926  0.53855  1.0000
  O   O220      1.0  0.61130  0.15015  0.53855  1.0000
  H   H632      1.0  0.63006  0.16926  0.53855  1.0000
  H   H633      1.0  0.59255  0.16926  0.69274  1.0000
  O   O221      1.0  0.61130  0.15015  0.69274  1.0000
  H   H634      1.0  0.63006  0.16926  0.69274  1.0000
  H   H635      1.0  0.59255  0.16926  0.76983  1.0000
  O   O222      1.0  0.61130  0.15015  0.76983  1.0000
  H   H636      1.0  0.63006  0.16926  0.76983  1.0000
  H   H637      1.0  0.59255  0.24488  0.15308  1.0000
  O   O223      1.0  0.61130  0.22577  0.15308  1.0000
  H   H638      1.0  0.63006  0.24488  0.15308  1.0000
  H   H639      1.0  0.59255  0.24488  0.23017  1.0000
  O   O224      1.0  0.61130  0.22577  0.23017  1.0000
  H   H640      1.0  0.63006  0.24488  0.23017  1.0000
  H   H641      1.0  0.59255  0.24488  0.76983  1.0000
  O   O225      1.0  0.61130  0.22577  0.76983  1.0000
  H   H642      1.0  0.63006  0.24488  0.76983  1.0000
  H   H643      1.0  0.59255  0.24488  0.84692  1.0000
  O   O226      1.0  0.61130  0.22577  0.84692  1.0000
  H   H644      1.0  0.63006  0.24488  0.84692  1.0000
  H   H645      1.0  0.59255  0.32050  0.15308  1.0000
  O   O227      1.0  0.61130  0.30139  0.15308  1.0000
  H   H646      1.0  0.63006  0.32050  0.15308  1.0000
  H   H647      1.0  0.59255  0.32050  0.84692  1.0000
  O   O228      1.0  0.61130  0.30139  0.84692  1.0000
  H   H648      1.0  0.63006  0.32050  0.84692  1.0000
  H   H649      1.0  0.59255  0.39612  0.15308  1.0000
  O   O229      1.0  0.61130  0.37701  0.15308  1.0000
  H   H650      1.0  0.63006  0.39612  0.15308  1.0000
  H   H651      1.0  0.59255  0.47174  0.15308  1.0000
  O   O230      1.0  0.61130  0.45263  0.15308  1.0000
  H   H652      1.0  0.63006  0.47174  0.15308  1.0000
  H   H653      1.0  0.59255  0.54737  0.15308  1.0000
  O   O231      1.0  0.61130  0.52826  0.15308  1.0000
  H   H654      1.0  0.63006  0.54737  0.15308  1.0000
  H   H655      1.0  0.59255  0.62299  0.15308  1.0000
  O   O232      1.0  0.61130  0.60388  0.15308  1.0000
  H   H656      1.0  0.63006  0.62299  0.15308  1.0000
  H   H657      1.0  0.59255  0.69861  0.15308  1.0000
  O   O233      1.0  0.61130  0.67950  0.15308  1.0000
  H   H658      1.0  0.63006  0.69861  0.15308  1.0000
  H   H659      1.0  0.59255  0.69861  0.84692  1.0000
  O   O234      1.0  0.61130  0.67950  0.84692  1.0000
  H   H660      1.0  0.63006  0.69861  0.84692  1.0000
  H   H661      1.0  0.59255  0.77423  0.15308  1.0000
  O   O235      1.0  0.61130  0.75512  0.15308  1.0000
  H   H662      1.0  0.63006  0.77423  0.15308  1.0000
  H   H663      1.0  0.59255  0.77423  0.23017  1.0000
  O   O236      1.0  0.61130  0.75512  0.23017  1.0000
  H   H664      1.0  0.63006  0.77423  0.23017  1.0000
  H   H665      1.0  0.59255  0.77423  0.76983  1.0000
  O   O237      1.0  0.61130  0.75512  0.76983  1.0000
  H   H666      1.0  0.63006  0.77423  0.76983  1.0000
  H   H667      1.0  0.59255  0.77423  0.84692  1.0000
  O   O238      1.0  0.61130  0.75512  0.84692  1.0000
  H   H668      1.0  0.63006  0.77423  0.84692  1.0000
  H   H669      1.0  0.59255  0.84985  0.23017  1.0000
  O   O239      1.0  0.61130  0.83074  0.23017  1.0000
  H   H670      1.0  0.63006  0.84985  0.23017  1.0000
  H   H671      1.0  0.59255  0.84985  0.30726  1.0000
  O   O240      1.0  0.61130  0.83074  0.30726  1.0000
  H   H672      1.0  0.63006  0.84985  0.30726  1.0000
  H   H673      1.0  0.59255  0.84985  0.46145  1.0000
  O   O241      1.0  0.61130  0.83074  0.46145  1.0000
  H   H674      1.0  0.63006  0.84985  0.46145  1.0000
  H   H675      1.0  0.59255  0.84985  0.53855  1.0000
  O   O242      1.0  0.61130  0.83074  0.53855  1.0000
  H   H676      1.0  0.63006  0.84985  0.53855  1.0000
  H   H677      1.0  0.59255  0.84985  0.69274  1.0000
  O   O243      1.0  0.61130  0.83074  0.69274  1.0000
  H   H678      1.0  0.63006  0.84985  0.69274  1.0000
  H   H679      1.0  0.59255  0.84985  0.76983  1.0000
  O   O244      1.0  0.61130  0.83074  0.76983  1.0000
  H   H680      1.0  0.63006  0.84985  0.76983  1.0000
  H   H681      1.0  0.66676  0.16926  0.23017  1.0000
  O   O245      1.0  0.68551  0.15015  0.23017  1.0000
  H   H682      1.0  0.70426  0.16926  0.23017  1.0000
  H   H683      1.0  0.66676  0.16926  0.30726  1.0000
  O   O246      1.0  0.68551  0.15015  0.30726  1.0000
  H   H684      1.0  0.70426  0.16926  0.30726  1.0000
  H   H685      1.0  0.66676  0.16926  0.38436  1.0000
  O   O247      1.0  0.68551  0.15015  0.38436  1.0000
  H   H686      1.0  0.70426  0.16926  0.38436  1.0000
  H   H687      1.0  0.66676  0.16926  0.46145  1.0000
  O   O248      1.0  0.68551  0.15015  0.46145  1.0000
  H   H688      1.0  0.70426  0.16926  0.46145  1.0000
  H   H689      1.0  0.66676  0.16926  0.53855  1.0000
  O   O249      1.0  0.68551  0.15015  0.53855  1.0000
  H   H690      1.0  0.70426  0.16926  0.53855  1.0000
  H   H691      1.0  0.66676  0.16926  0.61564  1.0000
  O   O250      1.0  0.68551  0.15015  0.61564  1.0000
  H   H692      1.0  0.70426  0.16926  0.61564  1.0000
  H   H693      1.0  0.66676  0.16926  0.69274  1.0000
  O   O251      1.0  0.68551  0.15015  0.69274  1.0000
  H   H694      1.0  0.70426  0.16926  0.69274  1.0000
  H   H695      1.0  0.66676  0.16926  0.76983  1.0000
  O   O252      1.0  0.68551  0.15015  0.76983  1.0000
  H   H696      1.0  0.70426  0.16926  0.76983  1.0000
  H   H697      1.0  0.66676  0.24488  0.15308  1.0000
  O   O253      1.0  0.68551  0.22577  0.15308  1.0000
  H   H698      1.0  0.70426  0.24488  0.15308  1.0000
  H   H699      1.0  0.66676  0.24488  0.23017  1.0000
  O   O254      1.0  0.68551  0.22577  0.23017  1.0000
  H   H700      1.0  0.70426  0.24488  0.23017  1.0000
  H   H701      1.0  0.66676  0.24488  0.61564  1.0000
  O   O255      1.0  0.68551  0.22577  0.61564  1.0000
  H   H702      1.0  0.70426  0.24488  0.61564  1.0000
  H   H703      1.0  0.66676  0.24488  0.76983  1.0000
  O   O256      1.0  0.68551  0.22577  0.76983  1.0000
  H   H704      1.0  0.70426  0.24488  0.76983  1.0000
  H   H705      1.0  0.66676  0.24488  0.84692  1.0000
  O   O257      1.0  0.68551  0.22577  0.84692  1.0000
  H   H706      1.0  0.70426  0.24488  0.84692  1.0000
  H   H707      1.0  0.66676  0.32050  0.15308  1.0000
  O   O258      1.0  0.68551  0.30139  0.15308  1.0000
  H   H708      1.0  0.70426  0.32050  0.15308  1.0000
  H   H709      1.0  0.66676  0.32050  0.84692  1.0000
  O   O259      1.0  0.68551  0.30139  0.84692  1.0000
  H   H710      1.0  0.70426  0.32050  0.84692  1.0000
  H   H711      1.0  0.66676  0.39612  0.15308  1.0000
  O   O260      1.0  0.68551  0.37701  0.15308  1.0000
  H   H712      1.0  0.70426  0.39612  0.15308  1.0000
  H   H713      1.0  0.66676  0.39612  0.23017  1.0000
  O   O261      1.0  0.68551  0.37701  0.23017  1.0000
  H   H714      1.0  0.70426  0.39612  0.23017  1.0000
  H   H715      1.0  0.66676  0.39612  0.84692  1.0000
  O   O262      1.0  0.68551  0.37701  0.84692  1.0000
  H   H716      1.0  0.70426  0.39612  0.84692  1.0000
  H   H717      1.0  0.66676  0.47174  0.15308  1.0000
  O   O263      1.0  0.68551  0.45263  0.15308  1.0000
  H   H718      1.0  0.70426  0.47174  0.15308  1.0000
  H   H719      1.0  0.66676  0.47174  0.84692  1.0000
  O   O264      1.0  0.68551  0.45263  0.84692  1.0000
  H   H720      1.0  0.70426  0.47174  0.84692  1.0000
  H   H721      1.0  0.66676  0.54737  0.15308  1.0000
  O   O265      1.0  0.68551  0.52826  0.15308  1.0000
  H   H722      1.0  0.70426  0.54737  0.15308  1.0000
  H   H723      1.0  0.66676  0.54737  0.84692  1.0000
  O   O266      1.0  0.68551  0.52826  0.84692  1.0000
  H   H724      1.0  0.70426  0.54737  0.84692  1.0000
  H   H725      1.0  0.66676  0.62299  0.15308  1.0000
  O   O267      1.0  0.68551  0.60388  0.15308  1.0000
  H   H726      1.0  0.70426  0.62299  0.15308  1.0000
  H   H727      1.0  0.66676  0.62299  0.23017  1.0000
  O   O268      1.0  0.68551  0.60388  0.23017  1.0000
  H   H728      1.0  0.70426  0.62299  0.23017  1.0000
  H   H729      1.0  0.66676  0.62299  0.84692  1.0000
  O   O269      1.0  0.68551  0.60388  0.84692  1.0000
  H   H730      1.0  0.70426  0.62299  0.84692  1.0000
  H   H731      1.0  0.66676  0.69861  0.15308  1.0000
  O   O270      1.0  0.68551  0.67950  0.15308  1.0000
  H   H732      1.0  0.70426  0.69861  0.15308  1.0000
  H   H733      1.0  0.66676  0.69861  0.84692  1.0000
  O   O271      1.0  0.68551  0.67950  0.84692  1.0000
  H   H734      1.0  0.70426  0.69861  0.84692  1.0000
  H   H735      1.0  0.66676  0.77423  0.15308  1.0000
  O   O272      1.0  0.68551  0.75512  0.15308  1.0000
  H   H736      1.0  0.70426  0.77423  0.15308  1.0000
  H   H737      1.0  0.66676  0.77423  0.23017  1.0000
  O   O273      1.0  0.68551  0.75512  0.23017  1.0000
  H   H738      1.0  0.70426  0.77423  0.23017  1.0000
  H   H739      1.0  0.66676  0.77423  0.61564  1.0000
  O   O274      1.0  0.68551  0.75512  0.61564  1.0000
  H   H740      1.0  0.70426  0.77423  0.61564  1.0000
  H   H741      1.0  0.66676  0.77423  0.76983  1.0000
  O   O275      1.0  0.68551  0.75512  0.76983  1.0000
  H   H742      1.0  0.70426  0.77423  0.76983  1.0000
  H   H743      1.0  0.66676  0.77423  0.84692  1.0000
  O   O276      1.0  0.68551  0.75512  0.84692  1.0000
  H   H744      1.0  0.70426  0.77423  0.84692  1.0000
  H   H745      1.0  0.66676  0.84985  0.23017  1.0000
  O   O277      1.0  0.68551  0.83074  0.23017  1.0000
  H   H746      1.0  0.70426  0.84985  0.23017  1.0000
  H   H747      1.0  0.66676  0.84985  0.30726  1.0000
  O   O278      1.0  0.68551  0.83074  0.30726  1.0000
  H   H748      1.0  0.70426  0.84985  0.30726  1.0000
  H   H749      1.0  0.66676  0.84985  0.38436  1.0000
  O   O279      1.0  0.68551  0.83074  0.38436  1.0000
  H   H750      1.0  0.70426  0.84985  0.38436  1.0000
  H   H751      1.0  0.66676  0.84985  0.46145  1.0000
  O   O280      1.0  0.68551  0.83074  0.46145  1.0000
  H   H752      1.0  0.70426  0.84985  0.46145  1.0000
  H   H753      1.0  0.66676  0.84985  0.53855  1.0000
  O   O281      1.0  0.68551  0.83074  0.53855  1.0000
  H   H754      1.0  0.70426  0.84985  0.53855  1.0000
  H   H755      1.0  0.66676  0.84985  0.61564  1.0000
  O   O282      1.0  0.68551  0.83074  0.61564  1.0000
  H   H756      1.0  0.70426  0.84985  0.61564  1.0000
  H   H757      1.0  0.66676  0.84985  0.69274  1.0000
  O   O283      1.0  0.68551  0.83074  0.69274  1.0000
  H   H758      1.0  0.70426  0.84985  0.69274  1.0000
  H   H759      1.0  0.66676  0.84985  0.76983  1.0000
  O   O284      1.0  0.68551  0.83074  0.76983  1.0000
  H   H760      1.0  0.70426  0.84985  0.76983  1.0000
  H   H761      1.0  0.74096  0.24488  0.15308  1.0000
  O   O285      1.0  0.75971  0.22577  0.15308  1.0000
  H   H762      1.0  0.77846  0.24488  0.15308  1.0000
  H   H763      1.0  0.74096  0.24488  0.23017  1.0000
  O   O286      1.0  0.75971  0.22577  0.23017  1.0000
  H   H764      1.0  0.77846  0.24488  0.23017  1.0000
  H   H765      1.0  0.74096  0.24488  0.30726  1.0000
  O   O287      1.0  0.75971  0.22577  0.30726  1.0000
  H   H766      1.0  0.77846  0.24488  0.30726  1.0000
  H   H767      1.0  0.74096  0.24488  0.38436  1.0000
  O   O288      1.0  0.75971  0.22577  0.38436  1.0000
  H   H768      1.0  0.77846  0.24488  0.38436  1.0000
  H   H769      1.0  0.74096  0.24488  0.46145  1.0000
  O   O289      1.0  0.75971  0.22577  0.46145  1.0000
  H   H770      1.0  0.77846  0.24488  0.46145  1.0000
  H   H771      1.0  0.74096  0.24488  0.53855  1.0000
  O   O290      1.0  0.75971  0.22577  0.53855  1.0000
  H   H772      1.0  0.77846  0.24488  0.53855  1.0000
  H   H773      1.0  0.74096  0.24488  0.61564  1.0000
  O   O291      1.0  0.75971  0.22577  0.61564  1.0000
  H   H774      1.0  0.77846  0.24488  0.61564  1.0000
  H   H775      1.0  0.74096  0.24488  0.69274  1.0000
  O   O292      1.0  0.75971  0.22577  0.69274  1.0000
  H   H776      1.0  0.77846  0.24488  0.69274  1.0000
  H   H777      1.0  0.74096  0.24488  0.76983  1.0000
  O   O293      1.0  0.75971  0.22577  0.76983  1.0000
  H   H778      1.0  0.77846  0.24488  0.76983  1.0000
  H   H779      1.0  0.74096  0.24488  0.84692  1.0000
  O   O294      1.0  0.75971  0.22577  0.84692  1.0000
  H   H780      1.0  0.77846  0.24488  0.84692  1.0000
  H   H781      1.0  0.74096  0.32050  0.15308  1.0000
  O   O295      1.0  0.75971  0.30139  0.15308  1.0000
  H   H782      1.0  0.77846  0.32050  0.15308  1.0000
  H   H783      1.0  0.74096  0.32050  0.23017  1.0000
  O   O296      1.0  0.75971  0.30139  0.23017  1.0000
  H   H784      1.0  0.77846  0.32050  0.23017  1.0000
  H   H785      1.0  0.74096  0.32050  0.38436  1.0000
  O   O297      1.0  0.75971  0.30139  0.38436  1.0000
  H   H786      1.0  0.77846  0.32050  0.38436  1.0000
  H   H787      1.0  0.74096  0.32050  0.76983  1.0000
  O   O298      1.0  0.75971  0.30139  0.76983  1.0000
  H   H788      1.0  0.77846  0.32050  0.76983  1.0000
  H   H789      1.0  0.74096  0.32050  0.84692  1.0000
  O   O299      1.0  0.75971  0.30139  0.84692  1.0000
  H   H790      1.0  0.77846  0.32050  0.84692  1.0000
  H   H791      1.0  0.74096  0.39612  0.15308  1.0000
  O   O300      1.0  0.75971  0.37701  0.15308  1.0000
  H   H792      1.0  0.77846  0.39612  0.15308  1.0000
  H   H793      1.0  0.74096  0.39612  0.23017  1.0000
  O   O301      1.0  0.75971  0.37701  0.23017  1.0000
  H   H794      1.0  0.77846  0.39612  0.23017  1.0000
  H   H795      1.0  0.74096  0.39612  0.76983  1.0000
  O   O302      1.0  0.75971  0.37701  0.76983  1.0000
  H   H796      1.0  0.77846  0.39612  0.76983  1.0000
  H   H797      1.0  0.74096  0.39612  0.84692  1.0000
  O   O303      1.0  0.75971  0.37701  0.84692  1.0000
  H   H798      1.0  0.77846  0.39612  0.84692  1.0000
  H   H799      1.0  0.74096  0.47174  0.15308  1.0000
  O   O304      1.0  0.75971  0.45263  0.15308  1.0000
  H   H800      1.0  0.77846  0.47174  0.15308  1.0000
  H   H801      1.0  0.74096  0.47174  0.23017  1.0000
  O   O305      1.0  0.75971  0.45263  0.23017  1.0000
  H   H802      1.0  0.77846  0.47174  0.23017  1.0000
  H   H803      1.0  0.74096  0.47174  0.76983  1.0000
  O   O306      1.0  0.75971  0.45263  0.76983  1.0000
  H   H804      1.0  0.77846  0.47174  0.76983  1.0000
  H   H805      1.0  0.74096  0.47174  0.84692  1.0000
  O   O307      1.0  0.75971  0.45263  0.84692  1.0000
  H   H806      1.0  0.77846  0.47174  0.84692  1.0000
  H   H807      1.0  0.74096  0.54737  0.15308  1.0000
  O   O308      1.0  0.75971  0.52826  0.15308  1.0000
  H   H808      1.0  0.77846  0.54737  0.15308  1.0000
  H   H809      1.0  0.74096  0.54737  0.23017  1.0000
  O   O309      1.0  0.75971  0.52826  0.23017  1.0000
  H   H810      1.0  0.77846  0.54737  0.23017  1.0000
  H   H811      1.0  0.74096  0.54737  0.76983  1.0000
  O   O310      1.0  0.75971  0.52826  0.76983  1.0000
  H   H812      1.0  0.77846  0.54737  0.76983  1.0000
  H   H813      1.0  0.74096  0.54737  0.84692  1.0000
  O   O311      1.0  0.75971  0.52826  0.84692  1.0000
  H   H814      1.0  0.77846  0.54737  0.84692  1.0000
  H   H815      1.0  0.74096  0.62299  0.15308  1.0000
  O   O312      1.0  0.75971  0.60388  0.15308  1.0000
  H   H816      1.0  0.77846  0.62299  0.15308  1.0000
  H   H817      1.0  0.74096  0.62299  0.23017  1.0000
  O   O313      1.0  0.75971  0.60388  0.23017  1.0000
  H   H818      1.0  0.77846  0.62299  0.23017  1.0000
  H   H819      1.0  0.74096  0.62299  0.76983  1.0000
  O   O314      1.0  0.75971  0.60388  0.76983  1.0000
  H   H820      1.0  0.77846  0.62299  0.76983  1.0000
  H   H821      1.0  0.74096  0.62299  0.84692  1.0000
  O   O315      1.0  0.75971  0.60388  0.84692  1.0000
  H   H822      1.0  0.77846  0.62299  0.84692  1.0000
  H   H823      1.0  0.74096  0.69861  0.15308  1.0000
  O   O316      1.0  0.75971  0.67950  0.15308  1.0000
  H   H824      1.0  0.77846  0.69861  0.15308  1.0000
  H   H825      1.0  0.74096  0.69861  0.23017  1.0000
  O   O317      1.0  0.75971  0.67950  0.23017  1.0000
  H   H826      1.0  0.77846  0.69861  0.23017  1.0000
  H   H827      1.0  0.74096  0.69861  0.38436  1.0000
  O   O318      1.0  0.75971  0.67950  0.38436  1.0000
  H   H828      1.0  0.77846  0.69861  0.38436  1.0000
  H   H829      1.0  0.74096  0.69861  0.76983  1.0000
  O   O319      1.0  0.75971  0.67950  0.76983  1.0000
  H   H830      1.0  0.77846  0.69861  0.76983  1.0000
  H   H831      1.0  0.74096  0.69861  0.84692  1.0000
  O   O320      1.0  0.75971  0.67950  0.84692  1.0000
  H   H832      1.0  0.77846  0.69861  0.84692  1.0000
  H   H833      1.0  0.74096  0.77423  0.15308  1.0000
  O   O321      1.0  0.75971  0.75512  0.15308  1.0000
  H   H834      1.0  0.77846  0.77423  0.15308  1.0000
  H   H835      1.0  0.74096  0.77423  0.23017  1.0000
  O   O322      1.0  0.75971  0.75512  0.23017  1.0000
  H   H836      1.0  0.77846  0.77423  0.23017  1.0000
  H   H837      1.0  0.74096  0.77423  0.30726  1.0000
  O   O323      1.0  0.75971  0.75512  0.30726  1.0000
  H   H838      1.0  0.77846  0.77423  0.30726  1.0000
  H   H839      1.0  0.74096  0.77423  0.38436  1.0000
  O   O324      1.0  0.75971  0.75512  0.38436  1.0000
  H   H840      1.0  0.77846  0.77423  0.38436  1.0000
  H   H841      1.0  0.74096  0.77423  0.46145  1.0000
  O   O325      1.0  0.75971  0.75512  0.46145  1.0000
  H   H842      1.0  0.77846  0.77423  0.46145  1.0000
  H   H843      1.0  0.74096  0.77423  0.53855  1.0000
  O   O326      1.0  0.75971  0.75512  0.53855  1.0000
  H   H844      1.0  0.77846  0.77423  0.53855  1.0000
  H   H845      1.0  0.74096  0.77423  0.61564  1.0000
  O   O327      1.0  0.75971  0.75512  0.61564  1.0000
  H   H846      1.0  0.77846  0.77423  0.61564  1.0000
  H   H847      1.0  0.74096  0.77423  0.69274  1.0000
  O   O328      1.0  0.75971  0.75512  0.69274  1.0000
  H   H848      1.0  0.77846  0.77423  0.69274  1.0000
  H   H849      1.0  0.74096  0.77423  0.76983  1.0000
  O   O329      1.0  0.75971  0.75512  0.76983  1.0000
  H   H850      1.0  0.77846  0.77423  0.76983  1.0000
  H   H851      1.0  0.74096  0.77423  0.84692  1.0000
  O   O330      1.0  0.75971  0.75512  0.84692  1.0000
  H   H852      1.0  0.77846  0.77423  0.84692  1.0000
  H   H853      1.0  0.81516  0.32050  0.23017  1.0000
  O   O331      1.0  0.83391  0.30139  0.23017  1.0000
  H   H854      1.0  0.85267  0.32050  0.23017  1.0000
  H   H855      1.0  0.81516  0.32050  0.30726  1.0000
  O   O332      1.0  0.83391  0.30139  0.30726  1.0000
  H   H856      1.0  0.85267  0.32050  0.30726  1.0000
  H   H857      1.0  0.81516  0.32050  0.38436  1.0000
  O   O333      1.0  0.83391  0.30139  0.38436  1.0000
  H   H858      1.0  0.85267  0.32050  0.38436  1.0000
  H   H859      1.0  0.81516  0.32050  0.46145  1.0000
  O   O334      1.0  0.83391  0.30139  0.46145  1.0000
  H   H860      1.0  0.85267  0.32050  0.46145  1.0000
  H   H861      1.0  0.81516  0.32050  0.53855  1.0000
  O   O335      1.0  0.83391  0.30139  0.53855  1.0000
  H   H862      1.0  0.85267  0.32050  0.53855  1.0000
  H   H863      1.0  0.81516  0.32050  0.61564  1.0000
  O   O336      1.0  0.83391  0.30139  0.61564  1.0000
  H   H864      1.0  0.85267  0.32050  0.61564  1.0000
  H   H865      1.0  0.81516  0.32050  0.69274  1.0000
  O   O337      1.0  0.83391  0.30139  0.69274  1.0000
  H   H866      1.0  0.85267  0.32050  0.69274  1.0000
  H   H867      1.0  0.81516  0.32050  0.76983  1.0000
  O   O338      1.0  0.83391  0.30139  0.76983  1.0000
  H   H868      1.0  0.85267  0.32050  0.76983  1.0000
  H   H869      1.0  0.81516  0.39612  0.23017  1.0000
  O   O339      1.0  0.83391  0.37701  0.23017  1.0000
  H   H870      1.0  0.85267  0.39612  0.23017  1.0000
  H   H871      1.0  0.81516  0.39612  0.30726  1.0000
  O   O340      1.0  0.83391  0.37701  0.30726  1.0000
  H   H872      1.0  0.85267  0.39612  0.30726  1.0000
  H   H873      1.0  0.81516  0.39612  0.46145  1.0000
  O   O341      1.0  0.83391  0.37701  0.46145  1.0000
  H   H874      1.0  0.85267  0.39612  0.46145  1.0000
  H   H875      1.0  0.81516  0.39612  0.53855  1.0000
  O   O342      1.0  0.83391  0.37701  0.53855  1.0000
  H   H876      1.0  0.85267  0.39612  0.53855  1.0000
  H   H877      1.0  0.81516  0.39612  0.69274  1.0000
  O   O343      1.0  0.83391  0.37701  0.69274  1.0000
  H   H878      1.0  0.85267  0.39612  0.69274  1.0000
  H   H879      1.0  0.81516  0.39612  0.76983  1.0000
  O   O344      1.0  0.83391  0.37701  0.76983  1.0000
  H   H880      1.0  0.85267  0.39612  0.76983  1.0000
  H   H881      1.0  0.81516  0.47174  0.23017  1.0000
  O   O345      1.0  0.83391  0.45263  0.23017  1.0000
  H   H882      1.0  0.85267  0.47174  0.23017  1.0000
  H   H883      1.0  0.81516  0.47174  0.30726  1.0000
  O   O346      1.0  0.83391  0.45263  0.30726  1.0000
  H   H884      1.0  0.85267  0.47174  0.30726  1.0000
  H   H885      1.0  0.81516  0.47174  0.46145  1.0000
  O   O347      1.0  0.83391  0.45263  0.46145  1.0000
  H   H886      1.0  0.85267  0.47174  0.46145  1.0000
  H   H887      1.0  0.81516  0.47174  0.53855  1.0000
  O   O348      1.0  0.83391  0.45263  0.53855  1.0000
  H   H888      1.0  0.85267  0.47174  0.53855  1.0000
  H   H889      1.0  0.81516  0.47174  0.69274  1.0000
  O   O349      1.0  0.83391  0.45263  0.69274  1.0000
  H   H890      1.0  0.85267  0.47174  0.69274  1.0000
  H   H891      1.0  0.81516  0.47174  0.76983  1.0000
  O   O350      1.0  0.83391  0.45263  0.76983  1.0000
  H   H892      1.0  0.85267  0.47174  0.76983  1.0000
  H   H893      1.0  0.81516  0.54737  0.23017  1.0000
  O   O351      1.0  0.83391  0.52826  0.23017  1.0000
  H   H894      1.0  0.85267  0.54737  0.23017  1.0000
  H   H895      1.0  0.81516  0.54737  0.30726  1.0000
  O   O352      1.0  0.83391  0.52826  0.30726  1.0000
  H   H896      1.0  0.85267  0.54737  0.30726  1.0000
  H   H897      1.0  0.81516  0.54737  0.46145  1.0000
  O   O353      1.0  0.83391  0.52826  0.46145  1.0000
  H   H898      1.0  0.85267  0.54737  0.46145  1.0000
  H   H899      1.0  0.81516  0.54737  0.53855  1.0000
  O   O354      1.0  0.83391  0.52826  0.53855  1.0000
  H   H900      1.0  0.85267  0.54737  0.53855  1.0000
  H   H901      1.0  0.81516  0.54737  0.69274  1.0000
  O   O355      1.0  0.83391  0.52826  0.69274  1.0000
  H   H902      1.0  0.85267  0.54737  0.69274  1.0000
  H   H903      1.0  0.81516  0.54737  0.76983  1.0000
  O   O356      1.0  0.83391  0.52826  0.76983  1.0000
  H   H904      1.0  0.85267  0.54737  0.76983  1.0000
  H   H905      1.0  0.81516  0.62299  0.23017  1.0000
  O   O357      1.0  0.83391  0.60388  0.23017  1.0000
  H   H906      1.0  0.85267  0.62299  0.23017  1.0000
  H   H907      1.0  0.81516  0.62299  0.30726  1.0000
  O   O358      1.0  0.83391  0.60388  0.30726  1.0000
  H   H908      1.0  0.85267  0.62299  0.30726  1.0000
  H   H909      1.0  0.81516  0.62299  0.46145  1.0000
  O   O359      1.0  0.83391  0.60388  0.46145  1.0000
  H   H910      1.0  0.85267  0.62299  0.46145  1.0000
  H   H911      1.0  0.81516  0.62299  0.53855  1.0000
  O   O360      1.0  0.83391  0.60388  0.53855  1.0000
  H   H912      1.0  0.85267  0.62299  0.53855  1.0000
  H   H913      1.0  0.81516  0.62299  0.69274  1.0000
  O   O361      1.0  0.83391  0.60388  0.69274  1.0000
  H   H914      1.0  0.85267  0.62299  0.69274  1.0000
  H   H915      1.0  0.81516  0.62299  0.76983  1.0000
  O   O362      1.0  0.83391  0.60388  0.76983  1.0000
  H   H916      1.0  0.85267  0.62299  0.76983  1.0000
  H   H917      1.0  0.81516  0.69861  0.23017  1.0000
  O   O363      1.0  0.83391  0.67950  0.23017  1.0000
  H   H918      1.0  0.85267  0.69861  0.23017  1.0000
  H   H919      1.0  0.81516  0.69861  0.30726  1.0000
  O   O364      1.0  0.83391  0.67950  0.30726  1.0000
  H   H920      1.0  0.85267  0.69861  0.30726  1.0000
  H   H921      1.0  0.81516  0.69861  0.38436  1.0000
  O   O365      1.0  0.83391  0.67950  0.38436  1.0000
  H   H922      1.0  0.85267  0.69861  0.38436  1.0000
  H   H923      1.0  0.81516  0.69861  0.46145  1.0000
  O   O366      1.0  0.83391  0.67950  0.46145  1.0000
  H   H924      1.0  0.85267  0.69861  0.46145  1.0000
  H   H925      1.0  0.81516  0.69861  0.53855  1.0000
  O   O367      1.0  0.83391  0.67950  0.53855  1.0000
  H   H926      1.0  0.85267  0.69861  0.53855  1.0000
  H   H927      1.0  0.81516  0.69861  0.61564  1.0000
  O   O368      1.0  0.83391  0.67950  0.61564  1.0000
  H   H928      1.0  0.85267  0.69861  0.61564  1.0000
  H   H929      1.0  0.81516  0.69861  0.69274  1.0000
  O   O369      1.0  0.83391  0.67950  0.69274  1.0000
  H   H930      1.0  0.85267  0.69861  0.69274  1.0000
  H   H931      1.0  0.81516  0.69861  0.76983  1.0000
  O   O370      1.0  0.83391  0.67950  0.76983  1.0000
  H   H932      1.0  0.85267  0.69861  0.76983  1.0000
