data_image0
_chemical_formula_structural       I108Pb27C32N32H193OH2OH2OH2OH2OH2OH2OH2OH2OH2OH2OH2OH2OH2OH2OH2OH2OH2OH2OH2OH2OH2OH2OH2OH2OH2OH2OH2OH2OH2OH2OH2OH2OH2OH2OH2OH2OH2OH2OH2OH2OH2OH2OH2OH2OH2OH2OH2OH2OH2OH2OH2OH2OH2OH2OH2OH2OH2OH2OH2OH2OH2OH2OH2OH2OH2OH2OH2OH2OH2OH2OH2OH2OH2OH2OH2OH2OH2OH2OH2OH2OH2OH2OH2OH2OH2OH2OH2OH2OH2OH2OH2OH2OH2OH2OH2OH2OH2OH2OH2OH2OH2OH2OH2OH2OH2OH2OH2OH2OH2OH2OH2OH2OH2OH2OH2OH2OH2OH2OH2OH2OH2OH2OH2OH2OH2OH2OH2OH2OH2OH2OH2OH2OH2OH2OH2OH2OH2OH2OH2OH2OH2OH2OH2OH2OH2OH2OH2OH2OH2OH2OH2OH2OH2OH2OH2OH2OH2OH2OH2OH2OH2OH2OH2OH2OH2OH2OH2OH2OH2OH2OH2OH2OH2OH2OH2OH2OH2OH2OH2OH2OH2OH2OH2OH2OH2OH2OH2OH2OH2OH2OH2OH2OH2OH2OH2OH2OH2OH2OH2OH2OH2OH2OH2OH2OH2OH2OH2OH2OH2OH2OH2OH2OH2OH2OH2OH2OH2OH2OH2OH2OH2OH2OH2OH2OH2OH2OH2OH2OH2OH2OH2OH2OH2OH2OH2OH2OH2OH2OH2OH2OH2OH2OH2OH2OH2OH2OH2OH2OH2OH2OH2OH2OH2OH2OH2OH2OH2OH2OH2OH2OH2OH2OH2OH2OH2OH2OH2OH2OH2OH2OH2OH2OH2OH2OH2OH2OH2OH2OH2OH2OH2OH2OH2OH2OH2OH2OH2OH2OH2OH2OH2OH2OH2OH2OH2OH2OH2OH2OH2OH2OH2OH2OH2OH2OH2OH2OH2OH2OH2OH2OH2OH2OH2OH2OH2OH2OH2OH2OH2OH2OH2OH2OH2OH2OH2OH2OH2OH2OH2OH2OH2OH2OH2OH2OH2OH2OH2OH2OH2OH2OH2OH2OH2OH2OH2OH2OH2OH2OH2OH2OH2OH2OH2OH2OH2OH2OH2OH2OH2OH2OH2OH2OH2OH2OH2OH2OH2OH2OH2OH
_chemical_formula_sum              "I108 Pb27 C32 N32 H932 O370"
_cell_length_a       37.33
_cell_length_b       36.63
_cell_length_c       35.93
_cell_angle_alpha    90
_cell_angle_beta     90
_cell_angle_gamma    90

_space_group_name_H-M_alt    "P 1"
_space_group_IT_number       1

loop_
  _space_group_symop_operation_xyz
  'x, y, z'

loop_
  _atom_site_type_symbol
  _atom_site_label
  _atom_site_symmetry_multiplicity
  _atom_site_fract_x
  _atom_site_fract_y
  _atom_site_fract_z
  _atom_site_occupancy
  I   I1        1.0  0.30555  0.34319  0.22975  1.0000
  I   I2        1.0  0.47947  0.31881  0.23219  1.0000
  I   I3        1.0  0.65095  0.31752  0.23791  1.0000
  I   I4        1.0  0.34688  0.48408  0.22566  1.0000
  I   I5        1.0  0.48661  0.49663  0.23270  1.0000
  I   I6        1.0  0.62981  0.47948  0.23604  1.0000
  I   I7        1.0  0.32398  0.66884  0.23566  1.0000
  I   I8        1.0  0.50728  0.63872  0.23646  1.0000
  I   I9        1.0  0.63850  0.67597  0.24605  1.0000
  I   I10       1.0  0.30513  0.21024  0.35246  1.0000
  I   I11       1.0  0.48349  0.22501  0.32036  1.0000
  I   I12       1.0  0.64806  0.22161  0.32249  1.0000
  I   I13       1.0  0.22778  0.33254  0.31951  1.0000
  I   I14       1.0  0.31435  0.31309  0.41199  1.0000
  I   I15       1.0  0.32413  0.40143  0.33510  1.0000
  I   I16       1.0  0.39707  0.30707  0.31904  1.0000
  I   I17       1.0  0.48218  0.31058  0.41047  1.0000
  I   I18       1.0  0.49312  0.39744  0.32600  1.0000
  I   I19       1.0  0.56786  0.30653  0.31811  1.0000
  I   I20       1.0  0.65917  0.31107  0.41381  1.0000
  I   I21       1.0  0.65149  0.39531  0.33219  1.0000
  I   I22       1.0  0.74421  0.31886  0.32086  1.0000
  I   I23       1.0  0.24534  0.49004  0.33785  1.0000
  I   I24       1.0  0.31821  0.48530  0.41370  1.0000
  I   I25       1.0  0.32985  0.57422  0.32211  1.0000
  I   I26       1.0  0.41107  0.47957  0.33247  1.0000
  I   I27       1.0  0.49226  0.48321  0.41154  1.0000
  I   I28       1.0  0.47856  0.57149  0.33384  1.0000
  I   I29       1.0  0.58289  0.49774  0.32028  1.0000
  I   I30       1.0  0.65640  0.48586  0.40922  1.0000
  I   I31       1.0  0.69501  0.56664  0.31200  1.0000
  I   I32       1.0  0.76985  0.47541  0.35245  1.0000
  I   I33       1.0  0.23703  0.65890  0.31254  1.0000
  I   I34       1.0  0.31616  0.65246  0.41504  1.0000
  I   I35       1.0  0.32157  0.75088  0.33778  1.0000
  I   I36       1.0  0.41720  0.67548  0.32252  1.0000
  I   I37       1.0  0.49072  0.65818  0.41412  1.0000
  I   I38       1.0  0.50815  0.79738  0.35370  1.0000
  I   I39       1.0  0.58590  0.62790  0.34207  1.0000
  I   I40       1.0  0.67725  0.65717  0.41712  1.0000
  I   I41       1.0  0.66261  0.74997  0.33883  1.0000
  I   I42       1.0  0.75196  0.66634  0.31385  1.0000
  I   I43       1.0  0.31076  0.21659  0.49469  1.0000
  I   I44       1.0  0.48402  0.21266  0.50663  1.0000
  I   I45       1.0  0.67522  0.22322  0.49350  1.0000
  I   I46       1.0  0.24064  0.33071  0.50024  1.0000
  I   I47       1.0  0.31500  0.30331  0.59141  1.0000
  I   I48       1.0  0.33079  0.39959  0.50473  1.0000
  I   I49       1.0  0.40352  0.31065  0.49539  1.0000
  I   I50       1.0  0.48950  0.32007  0.58829  1.0000
  I   I51       1.0  0.49249  0.39669  0.50159  1.0000
  I   I52       1.0  0.57499  0.30259  0.48937  1.0000
  I   I53       1.0  0.65304  0.32295  0.58519  1.0000
  I   I54       1.0  0.66788  0.39592  0.49596  1.0000
  I   I55       1.0  0.75451  0.32088  0.51148  1.0000
  I   I56       1.0  0.23906  0.48186  0.50024  1.0000
  I   I57       1.0  0.32376  0.48488  0.59095  1.0000
  I   I58       1.0  0.31852  0.57691  0.50543  1.0000
  I   I59       1.0  0.41014  0.49258  0.49423  1.0000
  I   I60       1.0  0.49387  0.48427  0.59020  1.0000
  I   I61       1.0  0.49251  0.57798  0.50689  1.0000
  I   I62       1.0  0.58093  0.47658  0.49804  1.0000
  I   I63       1.0  0.65946  0.48275  0.58876  1.0000
  I   I64       1.0  0.65632  0.57136  0.50145  1.0000
  I   I65       1.0  0.75314  0.49038  0.49313  1.0000
  I   I66       1.0  0.23019  0.65793  0.50532  1.0000
  I   I67       1.0  0.33355  0.65100  0.59533  1.0000
  I   I68       1.0  0.32019  0.77139  0.52200  1.0000
  I   I69       1.0  0.40707  0.67132  0.49483  1.0000
  I   I70       1.0  0.48715  0.66098  0.59304  1.0000
  I   I71       1.0  0.50461  0.76363  0.49716  1.0000
  I   I72       1.0  0.58481  0.66467  0.49510  1.0000
  I   I73       1.0  0.67017  0.64480  0.59275  1.0000
  I   I74       1.0  0.67562  0.74542  0.50312  1.0000
  I   I75       1.0  0.77137  0.65016  0.51777  1.0000
  I   I76       1.0  0.32496  0.21469  0.63311  1.0000
  I   I77       1.0  0.51575  0.22153  0.65906  1.0000
  I   I78       1.0  0.64024  0.21381  0.69399  1.0000
  I   I79       1.0  0.24943  0.34967  0.68379  1.0000
  I   I80       1.0  0.32194  0.30367  0.77022  1.0000
  I   I81       1.0  0.35948  0.39248  0.66523  1.0000
  I   I82       1.0  0.41481  0.29791  0.68042  1.0000
  I   I83       1.0  0.51698  0.30539  0.76616  1.0000
  I   I84       1.0  0.49252  0.39871  0.68215  1.0000
  I   I85       1.0  0.58413  0.32539  0.66457  1.0000
  I   I86       1.0  0.65796  0.31572  0.77870  1.0000
  I   I87       1.0  0.67268  0.39340  0.68877  1.0000
  I   I88       1.0  0.74212  0.30734  0.66128  1.0000
  I   I89       1.0  0.25464  0.46290  0.68156  1.0000
  I   I90       1.0  0.35994  0.46423  0.76269  1.0000
  I   I91       1.0  0.31278  0.56251  0.69424  1.0000
  I   I92       1.0  0.41713  0.49951  0.66766  1.0000
  I   I93       1.0  0.50563  0.49044  0.77521  1.0000
  I   I94       1.0  0.49722  0.57271  0.68104  1.0000
  I   I95       1.0  0.58643  0.48090  0.67571  1.0000
  I   I96       1.0  0.67525  0.48126  0.77066  1.0000
  I   I97       1.0  0.67882  0.56895  0.68126  1.0000
  I   I98       1.0  0.75881  0.47802  0.66135  1.0000
  I   I99       1.0  0.23249  0.65032  0.65881  1.0000
  I   I100      1.0  0.31224  0.64681  0.77371  1.0000
  I   I101      1.0  0.34035  0.74298  0.68586  1.0000
  I   I102      1.0  0.41075  0.64615  0.69200  1.0000
  I   I103      1.0  0.51782  0.64368  0.77077  1.0000
  I   I104      1.0  0.53117  0.74847  0.67181  1.0000
  I   I105      1.0  0.58341  0.64032  0.66257  1.0000
  I   I106      1.0  0.66879  0.64849  0.77850  1.0000
  I   I107      1.0  0.65115  0.74595  0.70150  1.0000
  I   I108      1.0  0.74565  0.67230  0.68198  1.0000
  Pb  Pb1       1.0  0.31102  0.32329  0.31305  1.0000
  Pb  Pb2       1.0  0.48410  0.30997  0.31822  1.0000
  Pb  Pb3       1.0  0.66336  0.31212  0.32257  1.0000
  Pb  Pb4       1.0  0.33024  0.49023  0.30985  1.0000
  Pb  Pb5       1.0  0.49616  0.48496  0.31845  1.0000
  Pb  Pb6       1.0  0.69443  0.48269  0.31406  1.0000
  Pb  Pb7       1.0  0.33233  0.66742  0.32214  1.0000
  Pb  Pb8       1.0  0.50458  0.65114  0.32142  1.0000
  Pb  Pb9       1.0  0.66878  0.66393  0.32543  1.0000
  Pb  Pb10      1.0  0.31902  0.29862  0.49861  1.0000
  Pb  Pb11      1.0  0.49282  0.30198  0.50191  1.0000
  Pb  Pb12      1.0  0.67491  0.31067  0.50438  1.0000
  Pb  Pb13      1.0  0.32522  0.48216  0.50171  1.0000
  Pb  Pb14      1.0  0.49717  0.48297  0.50282  1.0000
  Pb  Pb15      1.0  0.66870  0.48584  0.49725  1.0000
  Pb  Pb16      1.0  0.32292  0.66252  0.50368  1.0000
  Pb  Pb17      1.0  0.50015  0.66502  0.50342  1.0000
  Pb  Pb18      1.0  0.68624  0.65778  0.50859  1.0000
  Pb  Pb19      1.0  0.32540  0.31608  0.68192  1.0000
  Pb  Pb20      1.0  0.50450  0.30392  0.67749  1.0000
  Pb  Pb21      1.0  0.66549  0.31041  0.69276  1.0000
  Pb  Pb22      1.0  0.33750  0.47983  0.68346  1.0000
  Pb  Pb23      1.0  0.50365  0.48334  0.68967  1.0000
  Pb  Pb24      1.0  0.67674  0.48342  0.68093  1.0000
  Pb  Pb25      1.0  0.32858  0.65838  0.68317  1.0000
  Pb  Pb26      1.0  0.50555  0.66028  0.68116  1.0000
  Pb  Pb27      1.0  0.66481  0.65972  0.69370  1.0000
  C   C1        1.0  0.39779  0.38923  0.24085  1.0000
  C   C2        1.0  0.55695  0.39706  0.23754  1.0000
  C   C3        1.0  0.39715  0.58108  0.23201  1.0000
  C   C4        1.0  0.57755  0.56680  0.23120  1.0000
  C   C5        1.0  0.39809  0.23034  0.40502  1.0000
  C   C6        1.0  0.56368  0.22524  0.39841  1.0000
  C   C7        1.0  0.23122  0.40012  0.40478  1.0000
  C   C8        1.0  0.39954  0.39703  0.40780  1.0000
  C   C9        1.0  0.56470  0.39439  0.40749  1.0000
  C   C10       1.0  0.74152  0.38328  0.40664  1.0000
  C   C11       1.0  0.23067  0.57223  0.40509  1.0000
  C   C12       1.0  0.39953  0.56710  0.40802  1.0000
  C   C13       1.0  0.56148  0.56350  0.42296  1.0000
  C   C14       1.0  0.73058  0.57461  0.41388  1.0000
  C   C15       1.0  0.40305  0.74142  0.40747  1.0000
  C   C16       1.0  0.57738  0.72200  0.39773  1.0000
  C   C17       1.0  0.41087  0.24391  0.58067  1.0000
  C   C18       1.0  0.59591  0.23336  0.57112  1.0000
  C   C19       1.0  0.23776  0.40306  0.58344  1.0000
  C   C20       1.0  0.40673  0.40105  0.57078  1.0000
  C   C21       1.0  0.57021  0.40043  0.58285  1.0000
  C   C22       1.0  0.74661  0.39670  0.58669  1.0000
  C   C23       1.0  0.24174  0.56667  0.58676  1.0000
  C   C24       1.0  0.40664  0.56951  0.58272  1.0000
  C   C25       1.0  0.57060  0.56643  0.58320  1.0000
  C   C26       1.0  0.73704  0.55845  0.58432  1.0000
  C   C27       1.0  0.40699  0.72745  0.59604  1.0000
  C   C28       1.0  0.58323  0.73311  0.57876  1.0000
  C   C29       1.0  0.42775  0.37535  0.76288  1.0000
  C   C30       1.0  0.57828  0.39752  0.75446  1.0000
  C   C31       1.0  0.40366  0.56638  0.76602  1.0000
  C   C32       1.0  0.59114  0.56417  0.74904  1.0000
  N   N1        1.0  0.43316  0.41134  0.23830  1.0000
  N   N2        1.0  0.59689  0.39429  0.25009  1.0000
  N   N3        1.0  0.43598  0.57518  0.24677  1.0000
  N   N4        1.0  0.61156  0.57787  0.25326  1.0000
  N   N5        1.0  0.43599  0.21959  0.41961  1.0000
  N   N6        1.0  0.59956  0.22797  0.42003  1.0000
  N   N7        1.0  0.26933  0.39748  0.42300  1.0000
  N   N8        1.0  0.43898  0.39723  0.42265  1.0000
  N   N9        1.0  0.60284  0.39451  0.42592  1.0000
  N   N10       1.0  0.76128  0.39961  0.44088  1.0000
  N   N11       1.0  0.26972  0.56684  0.41975  1.0000
  N   N12       1.0  0.43895  0.56673  0.42306  1.0000
  N   N13       1.0  0.60312  0.56683  0.41962  1.0000
  N   N14       1.0  0.76390  0.54965  0.41909  1.0000
  N   N15       1.0  0.44457  0.73893  0.41383  1.0000
  N   N16       1.0  0.61101  0.72452  0.42329  1.0000
  N   N17       1.0  0.43066  0.21711  0.60707  1.0000
  N   N18       1.0  0.62791  0.21670  0.59258  1.0000
  N   N19       1.0  0.27529  0.39718  0.60183  1.0000
  N   N20       1.0  0.43900  0.40273  0.59863  1.0000
  N   N21       1.0  0.60782  0.40308  0.60199  1.0000
  N   N22       1.0  0.78639  0.40041  0.59875  1.0000
  N   N23       1.0  0.28078  0.56947  0.60190  1.0000
  N   N24       1.0  0.44443  0.56963  0.60159  1.0000
  N   N25       1.0  0.60848  0.56392  0.60191  1.0000
  N   N26       1.0  0.75809  0.56899  0.62036  1.0000
  N   N27       1.0  0.43899  0.75244  0.60804  1.0000
  N   N28       1.0  0.61370  0.71942  0.60480  1.0000
  N   N29       1.0  0.45823  0.39994  0.77825  1.0000
  N   N30       1.0  0.60832  0.40572  0.78356  1.0000
  N   N31       1.0  0.44129  0.57788  0.78089  1.0000
  N   N32       1.0  0.61904  0.56112  0.78110  1.0000
  H   H1        1.0  0.37994  0.39932  0.22042  1.0000
  H   H2        1.0  0.38649  0.39252  0.26772  1.0000
  H   H3        1.0  0.40387  0.36139  0.23590  1.0000
  H   H4        1.0  0.42859  0.43826  0.24496  1.0000
  H   H5        1.0  0.44462  0.41044  0.20818  1.0000
  H   H6        1.0  0.45168  0.40111  0.25678  1.0000
  H   H7        1.0  0.55640  0.40076  0.20818  1.0000
  H   H8        1.0  0.54552  0.42001  0.25113  1.0000
  H   H9        1.0  0.54360  0.37266  0.24540  1.0000
  H   H10       1.0  0.61060  0.41783  0.24141  1.0000
  H   H11       1.0  0.60974  0.37127  0.23909  1.0000
  H   H12       1.0  0.59910  0.39274  0.27887  1.0000
  H   H13       1.0  0.39839  0.58057  0.20250  1.0000
  H   H14       1.0  0.38800  0.60671  0.24208  1.0000
  H   H15       1.0  0.38088  0.55949  0.24217  1.0000
  H   H16       1.0  0.45320  0.59544  0.23664  1.0000
  H   H17       1.0  0.44642  0.54981  0.23846  1.0000
  H   H18       1.0  0.43712  0.57610  0.27573  1.0000
  H   H19       1.0  0.57564  0.58407  0.20766  1.0000
  H   H20       1.0  0.55487  0.56999  0.24865  1.0000
  H   H21       1.0  0.58030  0.53918  0.22299  1.0000
  H   H22       1.0  0.60835  0.60382  0.26403  1.0000
  H   H23       1.0  0.63657  0.57834  0.23543  1.0000
  H   H24       1.0  0.61545  0.56016  0.27521  1.0000
  H   H25       1.0  0.39960  0.23398  0.37577  1.0000
  H   H26       1.0  0.39019  0.25500  0.41823  1.0000
  H   H27       1.0  0.38022  0.20881  0.41182  1.0000
  H   H28       1.0  0.45345  0.24110  0.41509  1.0000
  H   H29       1.0  0.44733  0.19466  0.40648  1.0000
  H   H30       1.0  0.43504  0.21459  0.44791  1.0000
  H   H31       1.0  0.56924  0.21524  0.37139  1.0000
  H   H32       1.0  0.55176  0.25150  0.39658  1.0000
  H   H33       1.0  0.54653  0.20695  0.41284  1.0000
  H   H34       1.0  0.61750  0.24412  0.40582  1.0000
  H   H35       1.0  0.61250  0.19902  0.42471  1.0000
  H   H36       1.0  0.59515  0.24030  0.44540  1.0000
  H   H37       1.0  0.23468  0.40169  0.37547  1.0000
  H   H38       1.0  0.21856  0.42398  0.41531  1.0000
  H   H39       1.0  0.21655  0.37642  0.41232  1.0000
  H   H40       1.0  0.28483  0.42000  0.41533  1.0000
  H   H41       1.0  0.28267  0.37347  0.41495  1.0000
  H   H42       1.0  0.26744  0.39695  0.45184  1.0000
  H   H43       1.0  0.40066  0.39667  0.37825  1.0000
  H   H44       1.0  0.38672  0.42108  0.41759  1.0000
  H   H45       1.0  0.38678  0.37316  0.41821  1.0000
  H   H46       1.0  0.45313  0.41955  0.41213  1.0000
  H   H47       1.0  0.45214  0.37306  0.41494  1.0000
  H   H48       1.0  0.44016  0.39871  0.45159  1.0000
  H   H49       1.0  0.56823  0.39572  0.37818  1.0000
  H   H50       1.0  0.55067  0.41763  0.41760  1.0000
  H   H51       1.0  0.55164  0.36974  0.41531  1.0000
  H   H52       1.0  0.61727  0.41761  0.41784  1.0000
  H   H53       1.0  0.61749  0.37128  0.41831  1.0000
  H   H54       1.0  0.60092  0.39487  0.45477  1.0000
  H   H55       1.0  0.75503  0.39189  0.38224  1.0000
  H   H56       1.0  0.71461  0.39258  0.40621  1.0000
  H   H57       1.0  0.74236  0.35440  0.40882  1.0000
  H   H58       1.0  0.76014  0.42772  0.44055  1.0000
  H   H59       1.0  0.79091  0.39078  0.44000  1.0000
  H   H60       1.0  0.74955  0.39040  0.46505  1.0000
  H   H61       1.0  0.23180  0.57208  0.37552  1.0000
  H   H62       1.0  0.22093  0.59761  0.41529  1.0000
  H   H63       1.0  0.21495  0.55009  0.41509  1.0000
  H   H64       1.0  0.28657  0.58741  0.40950  1.0000
  H   H65       1.0  0.28029  0.54131  0.41195  1.0000
  H   H66       1.0  0.27129  0.56835  0.44874  1.0000
  H   H67       1.0  0.40073  0.56698  0.37846  1.0000
  H   H68       1.0  0.38692  0.59120  0.41808  1.0000
  H   H69       1.0  0.38656  0.54325  0.41814  1.0000
  H   H70       1.0  0.45329  0.58883  0.41249  1.0000
  H   H71       1.0  0.45207  0.54263  0.41521  1.0000
  H   H72       1.0  0.43978  0.56828  0.45201  1.0000
  H   H73       1.0  0.55137  0.55561  0.39652  1.0000
  H   H74       1.0  0.55130  0.58943  0.43097  1.0000
  H   H75       1.0  0.55588  0.54333  0.44336  1.0000
  H   H76       1.0  0.60916  0.58647  0.39958  1.0000
  H   H77       1.0  0.61477  0.54185  0.41191  1.0000
  H   H78       1.0  0.61466  0.57433  0.44514  1.0000
  H   H79       1.0  0.73537  0.59235  0.39107  1.0000
  H   H80       1.0  0.72679  0.58941  0.43893  1.0000
  H   H81       1.0  0.70801  0.55781  0.40844  1.0000
  H   H82       1.0  0.78655  0.56590  0.42794  1.0000
  H   H83       1.0  0.76951  0.53534  0.39485  1.0000
  H   H84       1.0  0.75894  0.53037  0.44000  1.0000
  H   H85       1.0  0.39799  0.73585  0.37892  1.0000
  H   H86       1.0  0.39441  0.76801  0.41507  1.0000
  H   H87       1.0  0.39082  0.72120  0.42454  1.0000
  H   H88       1.0  0.45855  0.75395  0.39400  1.0000
  H   H89       1.0  0.45352  0.71153  0.41205  1.0000
  H   H90       1.0  0.45183  0.74846  0.44013  1.0000
  H   H91       1.0  0.58345  0.73510  0.37216  1.0000
  H   H92       1.0  0.55577  0.73475  0.41175  1.0000
  H   H93       1.0  0.57178  0.69385  0.39341  1.0000
  H   H94       1.0  0.61911  0.75160  0.42738  1.0000
  H   H95       1.0  0.63240  0.70953  0.41224  1.0000
  H   H96       1.0  0.60483  0.71203  0.44893  1.0000
  H   H97       1.0  0.42321  0.24251  0.55418  1.0000
  H   H98       1.0  0.41260  0.27075  0.59147  1.0000
  H   H99       1.0  0.38377  0.23561  0.57876  1.0000
  H   H100      1.0  0.45766  0.22256  0.60672  1.0000
  H   H101      1.0  0.42609  0.18853  0.59706  1.0000
  H   H102      1.0  0.42212  0.21975  0.63494  1.0000
  H   H103      1.0  0.59915  0.22776  0.54239  1.0000
  H   H104      1.0  0.59531  0.26200  0.57553  1.0000
  H   H105      1.0  0.57197  0.22145  0.58143  1.0000
  H   H106      1.0  0.65315  0.22924  0.58748  1.0000
  H   H107      1.0  0.63228  0.18710  0.58541  1.0000
  H   H108      1.0  0.62336  0.21845  0.62068  1.0000
  H   H109      1.0  0.24186  0.40793  0.55460  1.0000
  H   H110      1.0  0.22575  0.42587  0.59678  1.0000
  H   H111      1.0  0.22246  0.37896  0.58767  1.0000
  H   H112      1.0  0.29051  0.42113  0.60034  1.0000
  H   H113      1.0  0.28910  0.37620  0.58849  1.0000
  H   H114      1.0  0.27180  0.38969  0.62981  1.0000
  H   H115      1.0  0.41749  0.40157  0.54344  1.0000
  H   H116      1.0  0.39017  0.42411  0.57570  1.0000
  H   H117      1.0  0.39271  0.37629  0.57566  1.0000
  H   H118      1.0  0.45416  0.42653  0.59465  1.0000
  H   H119      1.0  0.45578  0.38005  0.59460  1.0000
  H   H120      1.0  0.42990  0.40234  0.62593  1.0000
  H   H121      1.0  0.57427  0.40088  0.55361  1.0000
  H   H122      1.0  0.55473  0.42330  0.59138  1.0000
  H   H123      1.0  0.55809  0.37552  0.59130  1.0000
  H   H124      1.0  0.62124  0.42711  0.59430  1.0000
  H   H125      1.0  0.62355  0.38046  0.59440  1.0000
  H   H126      1.0  0.60498  0.40303  0.63069  1.0000
  H   H127      1.0  0.74561  0.39686  0.55722  1.0000
  H   H128      1.0  0.73192  0.41902  0.59771  1.0000
  H   H129      1.0  0.73640  0.37162  0.59699  1.0000
  H   H130      1.0  0.79583  0.42686  0.59101  1.0000
  H   H131      1.0  0.80420  0.38087  0.58412  1.0000
  H   H132      1.0  0.78870  0.39694  0.62701  1.0000
  H   H133      1.0  0.24321  0.56650  0.55722  1.0000
  H   H134      1.0  0.22752  0.58987  0.59649  1.0000
  H   H135      1.0  0.23033  0.54210  0.59705  1.0000
  H   H136      1.0  0.29356  0.59299  0.59191  1.0000
  H   H137      1.0  0.29565  0.54641  0.59393  1.0000
  H   H138      1.0  0.28162  0.57060  0.63103  1.0000
  H   H139      1.0  0.41058  0.56961  0.55343  1.0000
  H   H140      1.0  0.39285  0.59344  0.59136  1.0000
  H   H141      1.0  0.39305  0.54545  0.59126  1.0000
  H   H142      1.0  0.45868  0.59303  0.59396  1.0000
  H   H143      1.0  0.45913  0.54644  0.59396  1.0000
  H   H144      1.0  0.44240  0.56940  0.63049  1.0000
  H   H145      1.0  0.57440  0.56784  0.55392  1.0000
  H   H146      1.0  0.55781  0.59032  0.59347  1.0000
  H   H147      1.0  0.55610  0.54254  0.59071  1.0000
  H   H148      1.0  0.62458  0.58597  0.59409  1.0000
  H   H149      1.0  0.62160  0.53958  0.59438  1.0000
  H   H150      1.0  0.60605  0.56445  0.63069  1.0000
  H   H151      1.0  0.75501  0.54477  0.56617  1.0000
  H   H152      1.0  0.72718  0.58282  0.57212  1.0000
  H   H153      1.0  0.71559  0.54086  0.59165  1.0000
  H   H154      1.0  0.78214  0.58375  0.61207  1.0000
  H   H155      1.0  0.76487  0.54520  0.63463  1.0000
  H   H156      1.0  0.74194  0.58456  0.63756  1.0000
  H   H157      1.0  0.40832  0.72369  0.56674  1.0000
  H   H158      1.0  0.38273  0.74054  0.60362  1.0000
  H   H159      1.0  0.40942  0.70194  0.60981  1.0000
  H   H160      1.0  0.43586  0.77820  0.59349  1.0000
  H   H161      1.0  0.46270  0.74006  0.60026  1.0000
  H   H162      1.0  0.43947  0.75557  0.63720  1.0000
  H   H163      1.0  0.59314  0.73319  0.55109  1.0000
  H   H164      1.0  0.57574  0.75962  0.58771  1.0000
  H   H165      1.0  0.56123  0.71487  0.58131  1.0000
  H   H166      1.0  0.63714  0.73683  0.60348  1.0000
  H   H167      1.0  0.62207  0.69327  0.59737  1.0000
  H   H168      1.0  0.60438  0.71848  0.63191  1.0000
  H   H169      1.0  0.43532  0.36486  0.73653  1.0000
  H   H170      1.0  0.40439  0.39175  0.76038  1.0000
  H   H171      1.0  0.42346  0.35402  0.78229  1.0000
  H   H172      1.0  0.46374  0.42107  0.76027  1.0000
  H   H173      1.0  0.48157  0.38536  0.78255  1.0000
  H   H174      1.0  0.44979  0.41174  0.80607  1.0000
  H   H175      1.0  0.59006  0.38595  0.73029  1.0000
  H   H176      1.0  0.56544  0.42258  0.74802  1.0000
  H   H177      1.0  0.55994  0.37892  0.76680  1.0000
  H   H178      1.0  0.62775  0.42270  0.77229  1.0000
  H   H179      1.0  0.62060  0.38171  0.79187  1.0000
  H   H180      1.0  0.59651  0.42000  0.80740  1.0000
  H   H181      1.0  0.40672  0.55393  0.73951  1.0000
  H   H182      1.0  0.38750  0.59011  0.76389  1.0000
  H   H183      1.0  0.39234  0.54760  0.78524  1.0000
  H   H184      1.0  0.45444  0.59332  0.76114  1.0000
  H   H185      1.0  0.45650  0.55484  0.78589  1.0000
  H   H186      1.0  0.43808  0.59511  0.80739  1.0000
  H   H187      1.0  0.60492  0.56761  0.72351  1.0000
  H   H188      1.0  0.57447  0.58705  0.75441  1.0000
  H   H189      1.0  0.57574  0.53983  0.74865  1.0000
  H   H190      1.0  0.63442  0.58466  0.78249  1.0000
  H   H191      1.0  0.63578  0.53889  0.77666  1.0000
  H   H192      1.0  0.60444  0.55745  0.80766  1.0000
  H   H193      1.0  0.14610  0.30887  0.20605  1.0000
  O   O1        1.0  0.16813  0.32416  0.20558  1.0000
  H   H194      1.0  0.16767  0.36174  0.20874  1.0000
  H   H195      1.0  0.13771  0.24588  0.33818  1.0000
  O   O2        1.0  0.16357  0.25272  0.33948  1.0000
  H   H196      1.0  0.16805  0.26891  0.36298  1.0000
  H   H197      1.0  0.16584  0.30897  0.42876  1.0000
  O   O3        1.0  0.18082  0.29453  0.39776  1.0000
  H   H198      1.0  0.18905  0.31557  0.38167  1.0000
  H   H199      1.0  0.15528  0.35565  0.46391  1.0000
  O   O4        1.0  0.15531  0.32143  0.45511  1.0000
  H   H200      1.0  0.15761  0.30443  0.47677  1.0000
  H   H201      1.0  0.17144  0.28160  0.58062  1.0000
  O   O5        1.0  0.18616  0.27506  0.55553  1.0000
  H   H202      1.0  0.20331  0.29469  0.54757  1.0000
  H   H203      1.0  0.12558  0.28233  0.61248  1.0000
  O   O6        1.0  0.15123  0.29005  0.61259  1.0000
  H   H204      1.0  0.16094  0.29191  0.64075  1.0000
  H   H205      1.0  0.16225  0.31551  0.69602  1.0000
  O   O7        1.0  0.17508  0.29457  0.67902  1.0000
  H   H206      1.0  0.20075  0.30357  0.67736  1.0000
  H   H207      1.0  0.14854  0.30106  0.80703  1.0000
  O   O8        1.0  0.17200  0.31411  0.80869  1.0000
  H   H208      1.0  0.17014  0.34208  0.79709  1.0000
  H   H209      1.0  0.14854  0.41395  0.21420  1.0000
  O   O9        1.0  0.17218  0.39164  0.20979  1.0000
  H   H210      1.0  0.19140  0.39988  0.23305  1.0000
  H   H211      1.0  0.15988  0.40226  0.33758  1.0000
  O   O10       1.0  0.15829  0.38059  0.35793  1.0000
  H   H212      1.0  0.14181  0.36157  0.34733  1.0000
  H   H213      1.0  0.16043  0.39548  0.49838  1.0000
  O   O11       1.0  0.15551  0.38604  0.47191  1.0000
  H   H214      1.0  0.15359  0.41015  0.45264  1.0000
  H   H215      1.0  0.13171  0.36407  0.70510  1.0000
  O   O12       1.0  0.14995  0.34732  0.71617  1.0000
  H   H216      1.0  0.16020  0.35907  0.74146  1.0000
  H   H217      1.0  0.15736  0.39857  0.78382  1.0000
  O   O13       1.0  0.17229  0.37511  0.77783  1.0000
  H   H218      1.0  0.20110  0.38482  0.77826  1.0000
  H   H219      1.0  0.13637  0.46890  0.22983  1.0000
  O   O14       1.0  0.12764  0.43878  0.22225  1.0000
  H   H220      1.0  0.10749  0.43073  0.23858  1.0000
  H   H221      1.0  0.15596  0.45713  0.31276  1.0000
  O   O15       1.0  0.16124  0.43047  0.30858  1.0000
  H   H222      1.0  0.18161  0.42661  0.28853  1.0000
  H   H223      1.0  0.14928  0.44138  0.40724  1.0000
  O   O16       1.0  0.15269  0.44173  0.43480  1.0000
  H   H224      1.0  0.14579  0.46769  0.44842  1.0000
  H   H225      1.0  0.15027  0.44164  0.54116  1.0000
  O   O17       1.0  0.16945  0.42515  0.53101  1.0000
  H   H226      1.0  0.19023  0.44126  0.52261  1.0000
  H   H227      1.0  0.16669  0.48016  0.70823  1.0000
  O   O18       1.0  0.15846  0.45293  0.70977  1.0000
  H   H228      1.0  0.17685  0.43785  0.69642  1.0000
  H   H229      1.0  0.14039  0.46613  0.79134  1.0000
  O   O19       1.0  0.14724  0.44157  0.78074  1.0000
  H   H230      1.0  0.15096  0.44546  0.75212  1.0000
  H   H231      1.0  0.14277  0.52746  0.23355  1.0000
  O   O20       1.0  0.14512  0.49947  0.24236  1.0000
  H   H232      1.0  0.15113  0.50074  0.27044  1.0000
  H   H233      1.0  0.15397  0.53940  0.31636  1.0000
  O   O21       1.0  0.15843  0.51118  0.31478  1.0000
  H   H234      1.0  0.18409  0.50724  0.32299  1.0000
  H   H235      1.0  0.11545  0.51414  0.45565  1.0000
  O   O22       1.0  0.13603  0.50012  0.46608  1.0000
  H   H236      1.0  0.14602  0.51284  0.49165  1.0000
  H   H237      1.0  0.16111  0.55590  0.53269  1.0000
  O   O23       1.0  0.16119  0.52775  0.52464  1.0000
  H   H238      1.0  0.18666  0.51859  0.52587  1.0000
  H   H239      1.0  0.18038  0.54623  0.70599  1.0000
  O   O24       1.0  0.18624  0.51944  0.71292  1.0000
  H   H240      1.0  0.21259  0.51494  0.70877  1.0000
  H   H241      1.0  0.14654  0.54605  0.78433  1.0000
  O   O25       1.0  0.15832  0.51956  0.78694  1.0000
  H   H242      1.0  0.17221  0.51633  0.76279  1.0000
  H   H243      1.0  0.14976  0.59021  0.22356  1.0000
  O   O26       1.0  0.14172  0.56691  0.23765  1.0000
  H   H244      1.0  0.14357  0.57325  0.26539  1.0000
  H   H245      1.0  0.14131  0.60563  0.32475  1.0000
  O   O27       1.0  0.15580  0.58324  0.31171  1.0000
  H   H246      1.0  0.18136  0.59155  0.30986  1.0000
  H   H247      1.0  0.16226  0.60936  0.56696  1.0000
  O   O28       1.0  0.16682  0.59451  0.54283  1.0000
  H   H248      1.0  0.18316  0.60970  0.52660  1.0000
  H   H249      1.0  0.15130  0.59516  0.68061  1.0000
  O   O29       1.0  0.17210  0.58902  0.69729  1.0000
  H   H250      1.0  0.19252  0.60649  0.69030  1.0000
  H   H251      1.0  0.13133  0.60751  0.78606  1.0000
  O   O30       1.0  0.13620  0.58342  0.77139  1.0000
  H   H252      1.0  0.15085  0.58959  0.74863  1.0000
  H   H253      1.0  0.15223  0.64847  0.23777  1.0000
  O   O31       1.0  0.16395  0.63344  0.21625  1.0000
  H   H254      1.0  0.19077  0.63719  0.22072  1.0000
  H   H255      1.0  0.13574  0.66027  0.30117  1.0000
  O   O32       1.0  0.14727  0.67222  0.27766  1.0000
  H   H256      1.0  0.17198  0.67952  0.28589  1.0000
  H   H257      1.0  0.10139  0.63803  0.34655  1.0000
  O   O33       1.0  0.12729  0.63887  0.33953  1.0000
  H   H258      1.0  0.14463  0.64776  0.36521  1.0000
  H   H259      1.0  0.15490  0.66727  0.41678  1.0000
  O   O34       1.0  0.16406  0.65566  0.39232  1.0000
  H   H260      1.0  0.19157  0.66330  0.39010  1.0000
  H   H261      1.0  0.15432  0.71332  0.46147  1.0000
  O   O35       1.0  0.15555  0.68628  0.45695  1.0000
  H   H262      1.0  0.17722  0.67650  0.47125  1.0000
  H   H263      1.0  0.14602  0.65886  0.60040  1.0000
  O   O36       1.0  0.16109  0.63623  0.60193  1.0000
  H   H264      1.0  0.18404  0.64250  0.61635  1.0000
  H   H265      1.0  0.14032  0.70227  0.73641  1.0000
  O   O37       1.0  0.15042  0.68072  0.74962  1.0000
  H   H266      1.0  0.18093  0.67950  0.74912  1.0000
  H   H267      1.0  0.10380  0.65421  0.81355  1.0000
  O   O38       1.0  0.12753  0.64725  0.80291  1.0000
  H   H268      1.0  0.13567  0.66464  0.77828  1.0000
  H   H269      1.0  0.24163  0.18755  0.16515  1.0000
  O   O39       1.0  0.25549  0.19434  0.18785  1.0000
  H   H270      1.0  0.27921  0.21027  0.18147  1.0000
  H   H271      1.0  0.24350  0.21136  0.22067  1.0000
  O   O40       1.0  0.24414  0.23059  0.24394  1.0000
  H   H272      1.0  0.23137  0.26577  0.22851  1.0000
  H   H273      1.0  0.19229  0.23474  0.31333  1.0000
  O   O41       1.0  0.21381  0.21948  0.30284  1.0000
  H   H274      1.0  0.22889  0.22449  0.27239  1.0000
  H   H275      1.0  0.22945  0.21251  0.32649  1.0000
  O   O42       1.0  0.24740  0.20832  0.36407  1.0000
  H   H276      1.0  0.24197  0.23155  0.38475  1.0000
  H   H277      1.0  0.19240  0.19907  0.45176  1.0000
  O   O43       1.0  0.21649  0.20826  0.45981  1.0000
  H   H278      1.0  0.22432  0.22979  0.44063  1.0000
  H   H279      1.0  0.19491  0.24183  0.54400  1.0000
  O   O44       1.0  0.20279  0.21389  0.53400  1.0000
  H   H280      1.0  0.21192  0.21200  0.50710  1.0000
  H   H281      1.0  0.21876  0.17888  0.61292  1.0000
  O   O45       1.0  0.23051  0.19182  0.64496  1.0000
  H   H282      1.0  0.24935  0.20995  0.63725  1.0000
  H   H283      1.0  0.18451  0.24912  0.68844  1.0000
  O   O46       1.0  0.19736  0.22505  0.69447  1.0000
  H   H284      1.0  0.20940  0.20974  0.67063  1.0000
  H   H285      1.0  0.21797  0.22757  0.72085  1.0000
  O   O47       1.0  0.23864  0.23060  0.74674  1.0000
  H   H286      1.0  0.23203  0.25154  0.76669  1.0000
  H   H287      1.0  0.23760  0.24635  0.87468  1.0000
  O   O48       1.0  0.23887  0.23069  0.85179  1.0000
  H   H288      1.0  0.23508  0.24811  0.82980  1.0000
  H   H289      1.0  0.20754  0.31856  0.14968  1.0000
  O   O49       1.0  0.22774  0.33320  0.13896  1.0000
  H   H290      1.0  0.22106  0.36973  0.14377  1.0000
  H   H291      1.0  0.19290  0.30846  0.21173  1.0000
  O   O50       1.0  0.22501  0.29164  0.21609  1.0000
  H   H292      1.0  0.24623  0.30852  0.21762  1.0000
  H   H293      1.0  0.20646  0.27628  0.40442  1.0000
  O   O51       1.0  0.23330  0.25570  0.41086  1.0000
  H   H294      1.0  0.25503  0.27090  0.41732  1.0000
  H   H295      1.0  0.20325  0.29495  0.79829  1.0000
  O   O52       1.0  0.22796  0.28049  0.79322  1.0000
  H   H296      1.0  0.24937  0.29706  0.79474  1.0000
  H   H297      1.0  0.19656  0.31745  0.85318  1.0000
  O   O53       1.0  0.21390  0.32503  0.87349  1.0000
  H   H298      1.0  0.20790  0.35382  0.88137  1.0000
  H   H299      1.0  0.19304  0.39624  0.17441  1.0000
  O   O54       1.0  0.21115  0.39732  0.15135  1.0000
  H   H300      1.0  0.22837  0.42279  0.15248  1.0000
  H   H301      1.0  0.23119  0.43741  0.24585  1.0000
  O   O55       1.0  0.21128  0.41397  0.25956  1.0000
  H   H302      1.0  0.22553  0.39483  0.27319  1.0000
  H   H303      1.0  0.24715  0.42498  0.78218  1.0000
  O   O56       1.0  0.23578  0.39641  0.77662  1.0000
  H   H304      1.0  0.24526  0.38765  0.75186  1.0000
  H   H305      1.0  0.19087  0.39550  0.91421  1.0000
  O   O57       1.0  0.19995  0.38909  0.88896  1.0000
  H   H306      1.0  0.19926  0.41306  0.86968  1.0000
  H   H307      1.0  0.24918  0.45572  0.18997  1.0000
  O   O58       1.0  0.24712  0.45297  0.16015  1.0000
  H   H308      1.0  0.23925  0.47772  0.14981  1.0000
  H   H309      1.0  0.24894  0.49776  0.23590  1.0000
  O   O59       1.0  0.25132  0.45902  0.23046  1.0000
  H   H310      1.0  0.27676  0.45233  0.23661  1.0000
  H   H311      1.0  0.26981  0.48666  0.78560  1.0000
  O   O60       1.0  0.26971  0.45293  0.78705  1.0000
  H   H312      1.0  0.29042  0.44634  0.77029  1.0000
  H   H313      1.0  0.18259  0.43706  0.82244  1.0000
  O   O61       1.0  0.19716  0.44152  0.84560  1.0000
  H   H314      1.0  0.19998  0.47099  0.84820  1.0000
  H   H315      1.0  0.20757  0.53200  0.16834  1.0000
  O   O62       1.0  0.22498  0.52509  0.14815  1.0000
  H   H316      1.0  0.23454  0.54865  0.13758  1.0000
  H   H317      1.0  0.24879  0.55820  0.22232  1.0000
  O   O63       1.0  0.24972  0.52700  0.24211  1.0000
  H   H318      1.0  0.25334  0.53008  0.26955  1.0000
  H   H319      1.0  0.25237  0.54802  0.77941  1.0000
  O   O64       1.0  0.27782  0.51930  0.78382  1.0000
  H   H320      1.0  0.29528  0.52238  0.76272  1.0000
  H   H321      1.0  0.18049  0.51495  0.81919  1.0000
  O   O65       1.0  0.19730  0.50865  0.84276  1.0000
  H   H322      1.0  0.20790  0.53139  0.85353  1.0000
  H   H323      1.0  0.21990  0.63458  0.14792  1.0000
  O   O66       1.0  0.24560  0.61732  0.15018  1.0000
  H   H324      1.0  0.26805  0.63188  0.14047  1.0000
  H   H325      1.0  0.24795  0.60171  0.17751  1.0000
  O   O67       1.0  0.24729  0.58621  0.21011  1.0000
  H   H326      1.0  0.24924  0.60495  0.23023  1.0000
  H   H327      1.0  0.22636  0.58466  0.81343  1.0000
  O   O68       1.0  0.23605  0.57243  0.77776  1.0000
  H   H328      1.0  0.24937  0.59180  0.76371  1.0000
  H   H329      1.0  0.20177  0.62048  0.84462  1.0000
  O   O69       1.0  0.22243  0.59436  0.84225  1.0000
  H   H330      1.0  0.24767  0.59886  0.85375  1.0000
  H   H331      1.0  0.17399  0.64804  0.16868  1.0000
  O   O70       1.0  0.19160  0.65549  0.14821  1.0000
  H   H332      1.0  0.19770  0.68417  0.15013  1.0000
  H   H333      1.0  0.21421  0.69329  0.23047  1.0000
  O   O71       1.0  0.22793  0.66666  0.23149  1.0000
  H   H334      1.0  0.25480  0.67042  0.22930  1.0000
  H   H335      1.0  0.23284  0.70765  0.39008  1.0000
  O   O72       1.0  0.22788  0.67788  0.39212  1.0000
  H   H336      1.0  0.25032  0.66602  0.40240  1.0000
  H   H337      1.0  0.23052  0.70329  0.75636  1.0000
  O   O73       1.0  0.21644  0.67795  0.74989  1.0000
  H   H338      1.0  0.22727  0.66596  0.72727  1.0000
  H   H339      1.0  0.15947  0.64668  0.82954  1.0000
  O   O74       1.0  0.18316  0.64713  0.84560  1.0000
  H   H340      1.0  0.19726  0.67252  0.84385  1.0000
  H   H341      1.0  0.20392  0.74316  0.14271  1.0000
  O   O75       1.0  0.20730  0.72137  0.15896  1.0000
  H   H342      1.0  0.20249  0.72755  0.18778  1.0000
  H   H343      1.0  0.17135  0.72688  0.23631  1.0000
  O   O76       1.0  0.19701  0.72764  0.22816  1.0000
  H   H344      1.0  0.21692  0.74491  0.24904  1.0000
  H   H345      1.0  0.24392  0.74525  0.29236  1.0000
  O   O77       1.0  0.23907  0.75838  0.26848  1.0000
  H   H346      1.0  0.26546  0.76921  0.25368  1.0000
  H   H347      1.0  0.24728  0.75656  0.41502  1.0000
  O   O78       1.0  0.24180  0.74442  0.38908  1.0000
  H   H348      1.0  0.26273  0.74948  0.37175  1.0000
  H   H349      1.0  0.23537  0.76636  0.47346  1.0000
  O   O79       1.0  0.25558  0.77498  0.45371  1.0000
  H   H350      1.0  0.27914  0.76924  0.46674  1.0000
  H   H351      1.0  0.21968  0.76022  0.52919  1.0000
  O   O80       1.0  0.21390  0.74992  0.50319  1.0000
  H   H352      1.0  0.21839  0.72231  0.50453  1.0000
  H   H353      1.0  0.23165  0.75342  0.60945  1.0000
  O   O81       1.0  0.22502  0.74433  0.63561  1.0000
  H   H354      1.0  0.22699  0.71670  0.63710  1.0000
  H   H355      1.0  0.23814  0.76132  0.67030  1.0000
  O   O82       1.0  0.25297  0.76940  0.69446  1.0000
  H   H356      1.0  0.27700  0.75646  0.69192  1.0000
  H   H357      1.0  0.24436  0.75325  0.73766  1.0000
  O   O83       1.0  0.24444  0.73884  0.76233  1.0000
  H   H358      1.0  0.26709  0.74528  0.77800  1.0000
  H   H359      1.0  0.21573  0.71750  0.81383  1.0000
  O   O84       1.0  0.21689  0.70583  0.83916  1.0000
  H   H360      1.0  0.24292  0.70966  0.84947  1.0000
  H   H361      1.0  0.31264  0.09582  0.25462  1.0000
  O   O85       1.0  0.32984  0.10518  0.27352  1.0000
  H   H362      1.0  0.35304  0.12177  0.26120  1.0000
  H   H363      1.0  0.29076  0.12140  0.34398  1.0000
  O   O86       1.0  0.31377  0.10830  0.33920  1.0000
  H   H364      1.0  0.32066  0.10611  0.30748  1.0000
  H   H365      1.0  0.33924  0.11988  0.35778  1.0000
  O   O87       1.0  0.36467  0.13359  0.37175  1.0000
  H   H366      1.0  0.37755  0.15350  0.35392  1.0000
  H   H367      1.0  0.24483  0.17537  0.45837  1.0000
  O   O88       1.0  0.26293  0.15352  0.45507  1.0000
  H   H368      1.0  0.27528  0.15766  0.43046  1.0000
  H   H369      1.0  0.20741  0.19140  0.55653  1.0000
  O   O89       1.0  0.21113  0.16944  0.58343  1.0000
  H   H370      1.0  0.21524  0.14302  0.57850  1.0000
  H   H371      1.0  0.29627  0.15086  0.66842  1.0000
  O   O90       1.0  0.32779  0.15585  0.65117  1.0000
  H   H372      1.0  0.35226  0.14590  0.67818  1.0000
  H   H373      1.0  0.24985  0.16671  0.66654  1.0000
  O   O91       1.0  0.26925  0.14997  0.68212  1.0000
  H   H374      1.0  0.26714  0.14963  0.71219  1.0000
  H   H375      1.0  0.24451  0.17348  0.75721  1.0000
  O   O92       1.0  0.26251  0.15353  0.75165  1.0000
  H   H376      1.0  0.28437  0.15823  0.76942  1.0000
  H   H377      1.0  0.29183  0.27203  0.15934  1.0000
  O   O93       1.0  0.30583  0.23894  0.17886  1.0000
  H   H378      1.0  0.33416  0.23786  0.17713  1.0000
  H   H379      1.0  0.27488  0.23611  0.24613  1.0000
  O   O94       1.0  0.30862  0.24199  0.24379  1.0000
  H   H380      1.0  0.31347  0.26831  0.23660  1.0000
  H   H381      1.0  0.26704  0.23121  0.74316  1.0000
  O   O95       1.0  0.30597  0.23049  0.74984  1.0000
  H   H382      1.0  0.31168  0.20466  0.77625  1.0000
  H   H383      1.0  0.31255  0.18178  0.81920  1.0000
  O   O96       1.0  0.31637  0.17804  0.79178  1.0000
  H   H384      1.0  0.36853  0.24095  0.82280  1.0000
  H   H385      1.0  0.25194  0.31711  0.14037  1.0000
  O   O97       1.0  0.28358  0.29444  0.14187  1.0000
  H   H386      1.0  0.30394  0.30162  0.12529  1.0000
  H   H387      1.0  0.24751  0.31841  0.86852  1.0000
  O   O98       1.0  0.27758  0.31674  0.86114  1.0000
  H   H388      1.0  0.28556  0.34134  0.84711  1.0000
  H   H389      1.0  0.34117  0.35748  0.17186  1.0000
  O   O99       1.0  0.35829  0.36407  0.15118  1.0000
  H   H390      1.0  0.35349  0.39082  0.14403  1.0000
  H   H391      1.0  0.26784  0.38053  0.80979  1.0000
  O   O100      1.0  0.28883  0.37504  0.82724  1.0000
  H   H392      1.0  0.29705  0.39899  0.83994  1.0000
  H   H393      1.0  0.31854  0.44175  0.12844  1.0000
  O   O101      1.0  0.34154  0.43612  0.14201  1.0000
  H   H394      1.0  0.33982  0.44876  0.16725  1.0000
  H   H395      1.0  0.28987  0.44929  0.82530  1.0000
  O   O102      1.0  0.30549  0.44174  0.84883  1.0000
  H   H396      1.0  0.29522  0.45395  0.87143  1.0000
  H   H397      1.0  0.33740  0.54143  0.16513  1.0000
  O   O103      1.0  0.35551  0.55290  0.14823  1.0000
  H   H398      1.0  0.35371  0.58227  0.14894  1.0000
  H   H399      1.0  0.29626  0.53119  0.81590  1.0000
  O   O104      1.0  0.31116  0.54184  0.83967  1.0000
  H   H400      1.0  0.30218  0.56705  0.85071  1.0000
  H   H401      1.0  0.33066  0.63516  0.13702  1.0000
  O   O105      1.0  0.35276  0.62222  0.15135  1.0000
  H   H402      1.0  0.35135  0.63152  0.17768  1.0000
  H   H403      1.0  0.30396  0.62796  0.85890  1.0000
  O   O106      1.0  0.28893  0.60268  0.86807  1.0000
  H   H404      1.0  0.28992  0.60097  0.89589  1.0000
  H   H405      1.0  0.30613  0.68524  0.13407  1.0000
  O   O107      1.0  0.29995  0.65547  0.12333  1.0000
  H   H406      1.0  0.29718  0.65584  0.09562  1.0000
  H   H407      1.0  0.30652  0.68230  0.85080  1.0000
  O   O108      1.0  0.32207  0.65841  0.84870  1.0000
  H   H408      1.0  0.36103  0.66351  0.84330  1.0000
  H   H409      1.0  0.29330  0.73097  0.15565  1.0000
  O   O109      1.0  0.31400  0.71691  0.14531  1.0000
  H   H410      1.0  0.34049  0.72680  0.15835  1.0000
  H   H411      1.0  0.29401  0.81113  0.24697  1.0000
  O   O110      1.0  0.29179  0.78331  0.23774  1.0000
  H   H412      1.0  0.31681  0.77108  0.23900  1.0000
  H   H413      1.0  0.29359  0.78870  0.80027  1.0000
  O   O111      1.0  0.29747  0.76129  0.80540  1.0000
  H   H414      1.0  0.32652  0.75650  0.80017  1.0000
  H   H415      1.0  0.28934  0.74030  0.83684  1.0000
  O   O112      1.0  0.28336  0.71961  0.85827  1.0000
  H   H416      1.0  0.28811  0.72981  0.88369  1.0000
  H   H417      1.0  0.27471  0.86227  0.26418  1.0000
  O   O113      1.0  0.29705  0.84738  0.26234  1.0000
  H   H418      1.0  0.31418  0.85194  0.28567  1.0000
  H   H419      1.0  0.34867  0.88488  0.31378  1.0000
  O   O114      1.0  0.34172  0.85847  0.31485  1.0000
  H   H420      1.0  0.33507  0.85146  0.34529  1.0000
  H   H421      1.0  0.30349  0.84233  0.39390  1.0000
  O   O115      1.0  0.32853  0.84710  0.38083  1.0000
  H   H422      1.0  0.34783  0.84074  0.40008  1.0000
  H   H423      1.0  0.26356  0.81231  0.43359  1.0000
  O   O116      1.0  0.27205  0.83613  0.41980  1.0000
  H   H424      1.0  0.25414  0.85600  0.42392  1.0000
  H   H425      1.0  0.23826  0.80192  0.57264  1.0000
  O   O117      1.0  0.24178  0.77508  0.56789  1.0000
  H   H426      1.0  0.26765  0.77169  0.55727  1.0000
  H   H427      1.0  0.33241  0.87714  0.65181  1.0000
  O   O118      1.0  0.33614  0.85009  0.65427  1.0000
  H   H428      1.0  0.34212  0.84011  0.62808  1.0000
  H   H429      1.0  0.26769  0.80731  0.70207  1.0000
  O   O119      1.0  0.28330  0.83047  0.70964  1.0000
  H   H430      1.0  0.30198  0.83565  0.68973  1.0000
  H   H431      1.0  0.28891  0.85343  0.78882  1.0000
  O   O120      1.0  0.29923  0.83127  0.77655  1.0000
  H   H432      1.0  0.29171  0.83146  0.74644  1.0000
  H   H433      1.0  0.37076  0.17109  0.25524  1.0000
  O   O121      1.0  0.37703  0.14356  0.24802  1.0000
  H   H434      1.0  0.40435  0.14019  0.25122  1.0000
  H   H435      1.0  0.37916  0.19357  0.30671  1.0000
  O   O122      1.0  0.39174  0.18067  0.33018  1.0000
  H   H436      1.0  0.41825  0.18451  0.32881  1.0000
  H   H437      1.0  0.36812  0.13742  0.40040  1.0000
  O   O123      1.0  0.37242  0.14731  0.44177  1.0000
  H   H438      1.0  0.35119  0.15170  0.45833  1.0000
  H   H439      1.0  0.34265  0.13969  0.61759  1.0000
  O   O124      1.0  0.35555  0.13053  0.59238  1.0000
  H   H440      1.0  0.33833  0.13223  0.57115  1.0000
  H   H441      1.0  0.36631  0.13627  0.72968  1.0000
  O   O125      1.0  0.37012  0.13313  0.69855  1.0000
  H   H442      1.0  0.39833  0.13397  0.69245  1.0000
  H   H443      1.0  0.34867  0.15712  0.77886  1.0000
  O   O126      1.0  0.36944  0.14180  0.76572  1.0000
  H   H444      1.0  0.39470  0.15173  0.76989  1.0000
  H   H445      1.0  0.38253  0.27665  0.15879  1.0000
  O   O127      1.0  0.37748  0.24765  0.17243  1.0000
  H   H446      1.0  0.39780  0.23194  0.15808  1.0000
  H   H447      1.0  0.34172  0.21952  0.26384  1.0000
  O   O128      1.0  0.36648  0.20846  0.27128  1.0000
  H   H448      1.0  0.38624  0.22507  0.25608  1.0000
  H   H449      1.0  0.38732  0.22125  0.70818  1.0000
  O   O129      1.0  0.41685  0.22220  0.68219  1.0000
  H   H450      1.0  0.43874  0.22404  0.69931  1.0000
  H   H451      1.0  0.33282  0.22841  0.73656  1.0000
  O   O130      1.0  0.36940  0.22227  0.73161  1.0000
  H   H452      1.0  0.38338  0.22890  0.75437  1.0000
  H   H453      1.0  0.34295  0.25710  0.86911  1.0000
  O   O131      1.0  0.36810  0.23496  0.85008  1.0000
  H   H454      1.0  0.39551  0.23540  0.85899  1.0000
  H   H455      1.0  0.38228  0.33109  0.14330  1.0000
  O   O132      1.0  0.39430  0.30537  0.14224  1.0000
  H   H456      1.0  0.42016  0.30162  0.13100  1.0000
  H   H457      1.0  0.39081  0.24778  0.20234  1.0000
  O   O133      1.0  0.40870  0.24457  0.23195  1.0000
  H   H458      1.0  0.41590  0.26883  0.24261  1.0000
  H   H459      1.0  0.39868  0.28814  0.77016  1.0000
  O   O134      1.0  0.41375  0.27211  0.78645  1.0000
  H   H460      1.0  0.42668  0.28780  0.80891  1.0000
  H   H461      1.0  0.29791  0.29796  0.87109  1.0000
  O   O135      1.0  0.32422  0.27400  0.88458  1.0000
  H   H462      1.0  0.31836  0.26204  0.90879  1.0000
  H   H463      1.0  0.41445  0.35842  0.88718  1.0000
  O   O136      1.0  0.43321  0.36090  0.86756  1.0000
  H   H464      1.0  0.43707  0.39208  0.85646  1.0000
  H   H465      1.0  0.35584  0.44430  0.85037  1.0000
  O   O137      1.0  0.38037  0.45571  0.85492  1.0000
  H   H466      1.0  0.37800  0.49164  0.85349  1.0000
  H   H467      1.0  0.34058  0.53312  0.84532  1.0000
  O   O138      1.0  0.37227  0.52212  0.85188  1.0000
  H   H468      1.0  0.39287  0.53874  0.85664  1.0000
  H   H469      1.0  0.41330  0.63811  0.84118  1.0000
  O   O139      1.0  0.43344  0.61674  0.83957  1.0000
  H   H470      1.0  0.45575  0.62588  0.85258  1.0000
  H   H471      1.0  0.41008  0.65016  0.13728  1.0000
  O   O140      1.0  0.43332  0.65268  0.15127  1.0000
  H   H472      1.0  0.42695  0.66468  0.18064  1.0000
  H   H473      1.0  0.39305  0.68195  0.21789  1.0000
  O   O141      1.0  0.41922  0.67777  0.21284  1.0000
  H   H474      1.0  0.43578  0.69818  0.22691  1.0000
  H   H475      1.0  0.40386  0.68007  0.75463  1.0000
  O   O142      1.0  0.40559  0.69709  0.77673  1.0000
  H   H476      1.0  0.42558  0.71661  0.77035  1.0000
  H   H477      1.0  0.39218  0.70964  0.85437  1.0000
  O   O143      1.0  0.38900  0.66943  0.83963  1.0000
  H   H478      1.0  0.39461  0.67917  0.81261  1.0000
  H   H479      1.0  0.36620  0.74847  0.20294  1.0000
  O   O144      1.0  0.36931  0.73884  0.17573  1.0000
  H   H480      1.0  0.39400  0.74622  0.16516  1.0000
  H   H481      1.0  0.37142  0.78634  0.25469  1.0000
  O   O145      1.0  0.36106  0.76119  0.24393  1.0000
  H   H482      1.0  0.36315  0.74188  0.26363  1.0000
  H   H483      1.0  0.40499  0.75644  0.68669  1.0000
  O   O146      1.0  0.43201  0.76056  0.68680  1.0000
  H   H484      1.0  0.44088  0.75242  0.71361  1.0000
  H   H485      1.0  0.36848  0.79052  0.78138  1.0000
  O   O147      1.0  0.36379  0.75554  0.79620  1.0000
  H   H486      1.0  0.37262  0.73424  0.78032  1.0000
  H   H487      1.0  0.37727  0.74936  0.82655  1.0000
  O   O148      1.0  0.39177  0.73862  0.85505  1.0000
  H   H488      1.0  0.41793  0.74999  0.85953  1.0000
  H   H489      1.0  0.33325  0.85062  0.20240  1.0000
  O   O149      1.0  0.35990  0.85032  0.19891  1.0000
  H   H490      1.0  0.36999  0.84067  0.22330  1.0000
  H   H491      1.0  0.36762  0.83520  0.28907  1.0000
  O   O150      1.0  0.38339  0.82225  0.26877  1.0000
  H   H492      1.0  0.40995  0.82437  0.27513  1.0000
  H   H493      1.0  0.35201  0.80765  0.45183  1.0000
  O   O151      1.0  0.36936  0.82493  0.43942  1.0000
  H   H494      1.0  0.38492  0.83509  0.46069  1.0000
  H   H495      1.0  0.34223  0.81222  0.56401  1.0000
  O   O152      1.0  0.35274  0.83341  0.58018  1.0000
  H   H496      1.0  0.34853  0.85655  0.56577  1.0000
  H   H497      1.0  0.36825  0.84351  0.69049  1.0000
  O   O153      1.0  0.38591  0.84189  0.71209  1.0000
  H   H498      1.0  0.41345  0.83983  0.70337  1.0000
  H   H499      1.0  0.33917  0.82721  0.77610  1.0000
  O   O154      1.0  0.36638  0.81922  0.77197  1.0000
  H   H500      1.0  0.37642  0.82922  0.74327  1.0000
  H   H501      1.0  0.45578  0.17113  0.23678  1.0000
  O   O155      1.0  0.45006  0.14452  0.25300  1.0000
  H   H502      1.0  0.45973  0.12329  0.23862  1.0000
  H   H503      1.0  0.46601  0.14573  0.29152  1.0000
  O   O156      1.0  0.48068  0.14722  0.31774  1.0000
  H   H504      1.0  0.50944  0.14716  0.31088  1.0000
  H   H505      1.0  0.47048  0.15335  0.36787  1.0000
  O   O157      1.0  0.46684  0.16105  0.39503  1.0000
  H   H506      1.0  0.48888  0.15432  0.41070  1.0000
  H   H507      1.0  0.39596  0.15226  0.45725  1.0000
  O   O158      1.0  0.43070  0.15555  0.48146  1.0000
  H   H508      1.0  0.45149  0.14310  0.46807  1.0000
  H   H509      1.0  0.39252  0.14196  0.58711  1.0000
  O   O159      1.0  0.41929  0.15267  0.58296  1.0000
  H   H510      1.0  0.42689  0.14806  0.55660  1.0000
  H   H511      1.0  0.44126  0.14858  0.72199  1.0000
  O   O160      1.0  0.43629  0.13898  0.69428  1.0000
  H   H512      1.0  0.44923  0.15348  0.67488  1.0000
  H   H513      1.0  0.44887  0.19181  0.76055  1.0000
  O   O161      1.0  0.44192  0.16229  0.76070  1.0000
  H   H514      1.0  0.45684  0.14874  0.77922  1.0000
  H   H515      1.0  0.44559  0.24581  0.13401  1.0000
  O   O162      1.0  0.43361  0.22223  0.14496  1.0000
  H   H516      1.0  0.44867  0.21143  0.16576  1.0000
  H   H517      1.0  0.43958  0.22245  0.22593  1.0000
  O   O163      1.0  0.46117  0.20280  0.21918  1.0000
  H   H518      1.0  0.48663  0.21338  0.22184  1.0000
  H   H519      1.0  0.43729  0.24811  0.76948  1.0000
  O   O164      1.0  0.45555  0.22795  0.75630  1.0000
  H   H520      1.0  0.48083  0.23706  0.75795  1.0000
  H   H521      1.0  0.44220  0.26774  0.85624  1.0000
  O   O165      1.0  0.43393  0.24133  0.86559  1.0000
  H   H522      1.0  0.44802  0.23290  0.88754  1.0000
  H   H523      1.0  0.45656  0.28443  0.08937  1.0000
  O   O166      1.0  0.45569  0.28611  0.11716  1.0000
  H   H524      1.0  0.48298  0.29713  0.12775  1.0000
  H   H525      1.0  0.43994  0.33218  0.85233  1.0000
  O   O167      1.0  0.44746  0.30300  0.83662  1.0000
  H   H526      1.0  0.47209  0.30519  0.82537  1.0000
  H   H527      1.0  0.43739  0.43646  0.15609  1.0000
  O   O168      1.0  0.45551  0.41097  0.17217  1.0000
  H   H528      1.0  0.44947  0.38716  0.15988  1.0000
  H   H529      1.0  0.39490  0.44968  0.13441  1.0000
  O   O169      1.0  0.41936  0.45853  0.14194  1.0000
  H   H530      1.0  0.42055  0.49164  0.14380  1.0000
  H   H531      1.0  0.40414  0.44043  0.84787  1.0000
  O   O170      1.0  0.43890  0.42229  0.84264  1.0000
  H   H532      1.0  0.45790  0.43846  0.85359  1.0000
  H   H533      1.0  0.38961  0.53589  0.14572  1.0000
  O   O171      1.0  0.41661  0.52493  0.14507  1.0000
  H   H534      1.0  0.43503  0.54547  0.14988  1.0000
  H   H535      1.0  0.46555  0.52835  0.89371  1.0000
  O   O172      1.0  0.47771  0.51958  0.87055  1.0000
  H   H536      1.0  0.49383  0.54043  0.86180  1.0000
  H   H537      1.0  0.44644  0.61017  0.15637  1.0000
  O   O173      1.0  0.45573  0.58345  0.16039  1.0000
  H   H538      1.0  0.48220  0.58348  0.15594  1.0000
  H   H539      1.0  0.46538  0.66708  0.13596  1.0000
  O   O174      1.0  0.49145  0.67774  0.12644  1.0000
  H   H540      1.0  0.48999  0.68516  0.09974  1.0000
  H   H541      1.0  0.49566  0.64229  0.90542  1.0000
  O   O175      1.0  0.50080  0.63954  0.87820  1.0000
  H   H542      1.0  0.52186  0.65883  0.86995  1.0000
  H   H543      1.0  0.44941  0.77128  0.17691  1.0000
  O   O176      1.0  0.43636  0.75553  0.15754  1.0000
  H   H544      1.0  0.45179  0.73350  0.15276  1.0000
  H   H545      1.0  0.46350  0.74979  0.23217  1.0000
  O   O177      1.0  0.45578  0.72514  0.24392  1.0000
  H   H546      1.0  0.47385  0.71809  0.26362  1.0000
  H   H547      1.0  0.44864  0.77140  0.77255  1.0000
  O   O178      1.0  0.45031  0.74736  0.75642  1.0000
  H   H548      1.0  0.47724  0.74002  0.75977  1.0000
  H   H549      1.0  0.45698  0.78414  0.83479  1.0000
  O   O179      1.0  0.45292  0.76675  0.85804  1.0000
  H   H550      1.0  0.47429  0.76511  0.87458  1.0000
  H   H551      1.0  0.46224  0.80648  0.23370  1.0000
  O   O180      1.0  0.47490  0.78898  0.21614  1.0000
  H   H552      1.0  0.50192  0.79641  0.21684  1.0000
  H   H553      1.0  0.46221  0.85728  0.28225  1.0000
  O   O181      1.0  0.45567  0.83069  0.28094  1.0000
  H   H554      1.0  0.46976  0.81777  0.30163  1.0000
  H   H555      1.0  0.42348  0.82862  0.40931  1.0000
  O   O182      1.0  0.44720  0.82778  0.42259  1.0000
  H   H556      1.0  0.46697  0.82485  0.40341  1.0000
  H   H557      1.0  0.42885  0.87048  0.49574  1.0000
  O   O183      1.0  0.42233  0.84439  0.49049  1.0000
  H   H558      1.0  0.43810  0.83621  0.46824  1.0000
  H   H559      1.0  0.39882  0.82114  0.57549  1.0000
  O   O184      1.0  0.42399  0.81167  0.56961  1.0000
  H   H560      1.0  0.42861  0.81594  0.54214  1.0000
  H   H561      1.0  0.47277  0.83624  0.69302  1.0000
  O   O185      1.0  0.44742  0.82781  0.69128  1.0000
  H   H562      1.0  0.44419  0.79933  0.68707  1.0000
  H   H563      1.0  0.44042  0.82596  0.79769  1.0000
  O   O186      1.0  0.45832  0.80556  0.79912  1.0000
  H   H564      1.0  0.48550  0.81440  0.78911  1.0000
  H   H565      1.0  0.57153  0.13071  0.22278  1.0000
  O   O187      1.0  0.58321  0.14419  0.24366  1.0000
  H   H566      1.0  0.58997  0.17768  0.23582  1.0000
  H   H567      1.0  0.55071  0.17967  0.30719  1.0000
  O   O188      1.0  0.54724  0.15293  0.30245  1.0000
  H   H568      1.0  0.56172  0.14661  0.27668  1.0000
  H   H569      1.0  0.52895  0.14737  0.46814  1.0000
  O   O189      1.0  0.52582  0.14669  0.44005  1.0000
  H   H570      1.0  0.54820  0.13506  0.43000  1.0000
  H   H571      1.0  0.53136  0.15685  0.53820  1.0000
  O   O190      1.0  0.54724  0.13897  0.52471  1.0000
  H   H572      1.0  0.56851  0.13426  0.54124  1.0000
  H   H573      1.0  0.54048  0.14885  0.70218  1.0000
  O   O191      1.0  0.56091  0.15547  0.71895  1.0000
  H   H574      1.0  0.55604  0.18204  0.73345  1.0000
  H   H575      1.0  0.57234  0.14784  0.79135  1.0000
  O   O192      1.0  0.59428  0.15548  0.80534  1.0000
  H   H576      1.0  0.58677  0.17453  0.82569  1.0000
  H   H577      1.0  0.53891  0.24030  0.17707  1.0000
  O   O193      1.0  0.54997  0.24721  0.15150  1.0000
  H   H578      1.0  0.53767  0.27178  0.14351  1.0000
  H   H579      1.0  0.52619  0.25681  0.23609  1.0000
  O   O194      1.0  0.53053  0.23336  0.22227  1.0000
  H   H580      1.0  0.55667  0.22352  0.22924  1.0000
  H   H581      1.0  0.54503  0.23416  0.73310  1.0000
  O   O195      1.0  0.55304  0.21421  0.75044  1.0000
  H   H582      1.0  0.57535  0.22368  0.76640  1.0000
  H   H583      1.0  0.56175  0.19311  0.87751  1.0000
  O   O196      1.0  0.57488  0.20288  0.85535  1.0000
  H   H584      1.0  0.56619  0.23060  0.84981  1.0000
  H   H585      1.0  0.50836  0.31220  0.16923  1.0000
  O   O197      1.0  0.51375  0.30816  0.14201  1.0000
  H   H586      1.0  0.53002  0.33625  0.13178  1.0000
  H   H587      1.0  0.54835  0.27779  0.82094  1.0000
  O   O198      1.0  0.55846  0.26956  0.84578  1.0000
  H   H588      1.0  0.57875  0.28739  0.85357  1.0000
  H   H589      1.0  0.51836  0.37711  0.85965  1.0000
  O   O199      1.0  0.52228  0.39170  0.83646  1.0000
  H   H590      1.0  0.54301  0.40915  0.84133  1.0000
  H   H591      1.0  0.49475  0.41768  0.16243  1.0000
  O   O200      1.0  0.52212  0.41950  0.15434  1.0000
  H   H592      1.0  0.53342  0.44700  0.15239  1.0000
  H   H593      1.0  0.56711  0.46440  0.83192  1.0000
  O   O201      1.0  0.58070  0.44184  0.83961  1.0000
  H   H594      1.0  0.60233  0.44968  0.85773  1.0000
  H   H595      1.0  0.52943  0.49499  0.17442  1.0000
  O   O202      1.0  0.54436  0.48332  0.15446  1.0000
  H   H596      1.0  0.56805  0.49931  0.15026  1.0000
  H   H597      1.0  0.55722  0.56350  0.84681  1.0000
  O   O203      1.0  0.58334  0.55282  0.84270  1.0000
  H   H598      1.0  0.59747  0.55422  0.86627  1.0000
  H   H599      1.0  0.51522  0.58633  0.82030  1.0000
  O   O204      1.0  0.51952  0.58022  0.84732  1.0000
  H   H600      1.0  0.51201  0.60410  0.86280  1.0000
  H   H601      1.0  0.52381  0.66061  0.13857  1.0000
  O   O205      1.0  0.54705  0.64733  0.15128  1.0000
  H   H602      1.0  0.54098  0.64557  0.17871  1.0000
  H   H603      1.0  0.55337  0.66489  0.82933  1.0000
  O   O206      1.0  0.55268  0.67753  0.85446  1.0000
  H   H604      1.0  0.55210  0.70706  0.84696  1.0000
  H   H605      1.0  0.54663  0.77144  0.14373  1.0000
  O   O207      1.0  0.56839  0.77763  0.15875  1.0000
  H   H606      1.0  0.56012  0.78924  0.18354  1.0000
  H   H607      1.0  0.51771  0.74329  0.31211  1.0000
  O   O208      1.0  0.51679  0.72234  0.29331  1.0000
  H   H608      1.0  0.54013  0.72103  0.27928  1.0000
  H   H609      1.0  0.52922  0.74090  0.73960  1.0000
  O   O209      1.0  0.51943  0.73325  0.76514  1.0000
  H   H610      1.0  0.52084  0.70505  0.76632  1.0000
  H   H611      1.0  0.53690  0.74276  0.80684  1.0000
  O   O210      1.0  0.55278  0.74168  0.83029  1.0000
  H   H612      1.0  0.57859  0.74929  0.82170  1.0000
  H   H613      1.0  0.53982  0.83925  0.20803  1.0000
  O   O211      1.0  0.54166  0.81408  0.21887  1.0000
  H   H614      1.0  0.55496  0.81691  0.24543  1.0000
  H   H615      1.0  0.55514  0.81768  0.30424  1.0000
  O   O212      1.0  0.56956  0.82508  0.28159  1.0000
  H   H616      1.0  0.59318  0.83777  0.28956  1.0000
  H   H617      1.0  0.54073  0.79355  0.45740  1.0000
  O   O213      1.0  0.55824  0.80553  0.43816  1.0000
  H   H618      1.0  0.54624  0.80706  0.41273  1.0000
  H   H619      1.0  0.55316  0.80422  0.54220  1.0000
  O   O214      1.0  0.56656  0.82220  0.55860  1.0000
  H   H620      1.0  0.54853  0.84090  0.56677  1.0000
  H   H621      1.0  0.54318  0.80883  0.69883  1.0000
  O   O215      1.0  0.54733  0.83054  0.71600  1.0000
  H   H622      1.0  0.57491  0.83635  0.71701  1.0000
  H   H623      1.0  0.53093  0.82676  0.75078  1.0000
  O   O216      1.0  0.51937  0.82224  0.77833  1.0000
  H   H624      1.0  0.53817  0.82121  0.79803  1.0000
  H   H625      1.0  0.61767  0.13076  0.25444  1.0000
  O   O217      1.0  0.64325  0.12441  0.26734  1.0000
  H   H626      1.0  0.67233  0.12902  0.25379  1.0000
  H   H627      1.0  0.61638  0.15415  0.34154  1.0000
  O   O218      1.0  0.64148  0.15560  0.33050  1.0000
  H   H628      1.0  0.64331  0.13612  0.29424  1.0000
  H   H629      1.0  0.63077  0.15800  0.45551  1.0000
  O   O219      1.0  0.62775  0.16657  0.42925  1.0000
  H   H630      1.0  0.65408  0.16171  0.41383  1.0000
  H   H631      1.0  0.65632  0.14530  0.55684  1.0000
  O   O220      1.0  0.64180  0.14994  0.57972  1.0000
  H   H632      1.0  0.65636  0.14113  0.60527  1.0000
  H   H633      1.0  0.59244  0.15621  0.70357  1.0000
  O   O221      1.0  0.62227  0.15568  0.69444  1.0000
  H   H634      1.0  0.63613  0.14186  0.73477  1.0000
  H   H635      1.0  0.62710  0.14319  0.78180  1.0000
  O   O222      1.0  0.64555  0.13563  0.76114  1.0000
  H   H636      1.0  0.68122  0.13639  0.76069  1.0000
  H   H637      1.0  0.58651  0.23906  0.15563  1.0000
  O   O223      1.0  0.61370  0.23322  0.16684  1.0000
  H   H638      1.0  0.63393  0.26320  0.15919  1.0000
  H   H639      1.0  0.60848  0.22365  0.19434  1.0000
  O   O224      1.0  0.59454  0.20870  0.23160  1.0000
  H   H640      1.0  0.61006  0.21867  0.25202  1.0000
  H   H641      1.0  0.62151  0.26017  0.78285  1.0000
  O   O225      1.0  0.60841  0.23607  0.78693  1.0000
  H   H642      1.0  0.62673  0.21655  0.79189  1.0000
  H   H643      1.0  0.61849  0.21853  0.86477  1.0000
  O   O226      1.0  0.64158  0.23344  0.86728  1.0000
  H   H644      1.0  0.63497  0.26016  0.86564  1.0000
  H   H645      1.0  0.63392  0.30709  0.14086  1.0000
  O   O227      1.0  0.64984  0.28635  0.14792  1.0000
  H   H646      1.0  0.68370  0.29684  0.15356  1.0000
  H   H647      1.0  0.61219  0.31225  0.89930  1.0000
  O   O228      1.0  0.61356  0.31101  0.87141  1.0000
  H   H648      1.0  0.62537  0.33527  0.86299  1.0000
  H   H649      1.0  0.53395  0.39354  0.13998  1.0000
  O   O229      1.0  0.54487  0.36401  0.12631  1.0000
  H   H650      1.0  0.57039  0.36276  0.11849  1.0000
  H   H651      1.0  0.62306  0.43909  0.15557  1.0000
  O   O230      1.0  0.63616  0.41952  0.16972  1.0000
  H   H652      1.0  0.66377  0.42503  0.16763  1.0000
  H   H653      1.0  0.59083  0.55257  0.14026  1.0000
  O   O231      1.0  0.59719  0.52525  0.14802  1.0000
  H   H654      1.0  0.62038  0.52409  0.16186  1.0000
  H   H655      1.0  0.56591  0.61259  0.13729  1.0000
  O   O232      1.0  0.58356  0.59155  0.12950  1.0000
  H   H656      1.0  0.60593  0.60289  0.11929  1.0000
  H   H657      1.0  0.58674  0.66401  0.14933  1.0000
  O   O233      1.0  0.61398  0.66954  0.14821  1.0000
  H   H658      1.0  0.61967  0.69651  0.15542  1.0000
  H   H659      1.0  0.59562  0.65884  0.86942  1.0000
  O   O234      1.0  0.62210  0.65281  0.87342  1.0000
  H   H660      1.0  0.63526  0.67691  0.86895  1.0000
  H   H661      1.0  0.60505  0.75372  0.15556  1.0000
  O   O235      1.0  0.62760  0.73904  0.16378  1.0000
  H   H662      1.0  0.63031  0.74816  0.19150  1.0000
  H   H663      1.0  0.63152  0.75504  0.25244  1.0000
  O   O236      1.0  0.63056  0.76937  0.22868  1.0000
  H   H664      1.0  0.63793  0.79600  0.23310  1.0000
  H   H665      1.0  0.62167  0.73996  0.78296  1.0000
  O   O237      1.0  0.61683  0.75551  0.80554  1.0000
  H   H666      1.0  0.62821  0.78334  0.80008  1.0000
  H   H667      1.0  0.63527  0.73819  0.88693  1.0000
  O   O238      1.0  0.64436  0.72514  0.86430  1.0000
  H   H668      1.0  0.63308  0.73762  0.84024  1.0000
  H   H669      1.0  0.64068  0.85486  0.21755  1.0000
  O   O239      1.0  0.65266  0.83912  0.23667  1.0000
  H   H670      1.0  0.64583  0.84900  0.26390  1.0000
  H   H671      1.0  0.62618  0.88815  0.30088  1.0000
  O   O240      1.0  0.63063  0.86116  0.29975  1.0000
  H   H672      1.0  0.64612  0.85328  0.32537  1.0000
  H   H673      1.0  0.59443  0.80380  0.44333  1.0000
  O   O241      1.0  0.62387  0.79993  0.44609  1.0000
  H   H674      1.0  0.63196  0.78868  0.47057  1.0000
  H   H675      1.0  0.60961  0.82340  0.58169  1.0000
  O   O242      1.0  0.63334  0.82223  0.59568  1.0000
  H   H676      1.0  0.64540  0.79645  0.59760  1.0000
  H   H677      1.0  0.63999  0.84708  0.71183  1.0000
  O   O243      1.0  0.61674  0.83307  0.72205  1.0000
  H   H678      1.0  0.62075  0.80673  0.71395  1.0000
  H   H679      1.0  0.62767  0.82681  0.76721  1.0000
  O   O244      1.0  0.64148  0.81667  0.79002  1.0000
  H   H680      1.0  0.66833  0.81790  0.78225  1.0000
  H   H681      1.0  0.70714  0.16382  0.22380  1.0000
  O   O245      1.0  0.70300  0.13546  0.24387  1.0000
  H   H682      1.0  0.71527  0.11347  0.23350  1.0000
  H   H683      1.0  0.72044  0.14873  0.28659  1.0000
  O   O246      1.0  0.73056  0.15845  0.31158  1.0000
  H   H684      1.0  0.74332  0.18425  0.30594  1.0000
  H   H685      1.0  0.67629  0.15154  0.36792  1.0000
  O   O247      1.0  0.68332  0.15555  0.39494  1.0000
  H   H686      1.0  0.70805  0.17069  0.39680  1.0000
  H   H687      1.0  0.71291  0.15162  0.52026  1.0000
  O   O248      1.0  0.68892  0.15556  0.49036  1.0000
  H   H688      1.0  0.70098  0.15463  0.46491  1.0000
  H   H689      1.0  0.72662  0.12804  0.56026  1.0000
  O   O249      1.0  0.73086  0.14976  0.54411  1.0000
  H   H690      1.0  0.74662  0.18135  0.55744  1.0000
  H   H691      1.0  0.64924  0.13695  0.65844  1.0000
  O   O250      1.0  0.66945  0.13332  0.63961  1.0000
  H   H692      1.0  0.69360  0.13908  0.65492  1.0000
  H   H693      1.0  0.71773  0.14214  0.71043  1.0000
  O   O251      1.0  0.72227  0.14729  0.68233  1.0000
  H   H694      1.0  0.73754  0.17049  0.68126  1.0000
  H   H695      1.0  0.72047  0.17646  0.77292  1.0000
  O   O252      1.0  0.71107  0.13882  0.75623  1.0000
  H   H696      1.0  0.72372  0.11737  0.76731  1.0000
  H   H697      1.0  0.64599  0.21132  0.15542  1.0000
  O   O253      1.0  0.67210  0.20011  0.15097  1.0000
  H   H698      1.0  0.68265  0.21152  0.12817  1.0000
  H   H699      1.0  0.69464  0.19436  0.18260  1.0000
  O   O254      1.0  0.71120  0.18933  0.20640  1.0000
  H   H700      1.0  0.73102  0.20926  0.21490  1.0000
  H   H701      1.0  0.70401  0.26351  0.60007  1.0000
  O   O255      1.0  0.69730  0.23905  0.58967  1.0000
  H   H702      1.0  0.72014  0.22774  0.57814  1.0000
  H   H703      1.0  0.71566  0.21692  0.81591  1.0000
  O   O256      1.0  0.72514  0.20276  0.78365  1.0000
  H   H704      1.0  0.74249  0.21820  0.76763  1.0000
  H   H705      1.0  0.68177  0.22688  0.85126  1.0000
  O   O257      1.0  0.70797  0.23041  0.84271  1.0000
  H   H706      1.0  0.71805  0.25921  0.85352  1.0000
  H   H707      1.0  0.71592  0.33652  0.14586  1.0000
  O   O258      1.0  0.71119  0.30840  0.15742  1.0000
  H   H708      1.0  0.72422  0.30333  0.18348  1.0000
  H   H709      1.0  0.71516  0.29036  0.89363  1.0000
  O   O259      1.0  0.72496  0.28899  0.86787  1.0000
  H   H710      1.0  0.75323  0.30482  0.86545  1.0000
  H   H711      1.0  0.71304  0.39355  0.14038  1.0000
  O   O260      1.0  0.72523  0.36949  0.13270  1.0000
  H   H712      1.0  0.75321  0.37369  0.13504  1.0000
  H   H713      1.0  0.74029  0.39619  0.27634  1.0000
  O   O261      1.0  0.74988  0.40841  0.25345  1.0000
  H   H714      1.0  0.74124  0.43647  0.25320  1.0000
  H   H715      1.0  0.64573  0.40179  0.86594  1.0000
  O   O262      1.0  0.64738  0.37520  0.85803  1.0000
  H   H716      1.0  0.67287  0.37037  0.85022  1.0000
  H   H717      1.0  0.71182  0.46155  0.15713  1.0000
  O   O263      1.0  0.70563  0.43334  0.16391  1.0000
  H   H718      1.0  0.72072  0.42693  0.18617  1.0000
  H   H719      1.0  0.64754  0.48474  0.87293  1.0000
  O   O264      1.0  0.63592  0.45835  0.87960  1.0000
  H   H720      1.0  0.63471  0.45664  0.90740  1.0000
  H   H721      1.0  0.73281  0.51013  0.13204  1.0000
  O   O265      1.0  0.71956  0.49995  0.15384  1.0000
  H   H722      1.0  0.72457  0.51528  0.17851  1.0000
  H   H723      1.0  0.65988  0.54831  0.86763  1.0000
  O   O266      1.0  0.66390  0.51979  0.86411  1.0000
  H   H724      1.0  0.68278  0.51606  0.84456  1.0000
  H   H725      1.0  0.63777  0.64189  0.15426  1.0000
  O   O267      1.0  0.65835  0.61966  0.15715  1.0000
  H   H726      1.0  0.68189  0.63047  0.14929  1.0000
  H   H727      1.0  0.66346  0.59854  0.18710  1.0000
  O   O268      1.0  0.66967  0.58332  0.21382  1.0000
  H   H728      1.0  0.68487  0.60057  0.22896  1.0000
  H   H729      1.0  0.64143  0.61470  0.86944  1.0000
  O   O269      1.0  0.65846  0.59167  0.86729  1.0000
  H   H730      1.0  0.68334  0.60203  0.86579  1.0000
  H   H731      1.0  0.68488  0.67612  0.19304  1.0000
  O   O270      1.0  0.70815  0.67801  0.17880  1.0000
  H   H732      1.0  0.70678  0.70417  0.16499  1.0000
  H   H733      1.0  0.72322  0.66044  0.90331  1.0000
  O   O271      1.0  0.73043  0.65843  0.87663  1.0000
  H   H734      1.0  0.72424  0.68388  0.86269  1.0000
  H   H735      1.0  0.66618  0.74052  0.15009  1.0000
  O   O272      1.0  0.69456  0.73904  0.14829  1.0000
  H   H736      1.0  0.70461  0.76225  0.15901  1.0000
  H   H737      1.0  0.69889  0.72987  0.25100  1.0000
  O   O273      1.0  0.71921  0.74720  0.24681  1.0000
  H   H738      1.0  0.71263  0.76904  0.22950  1.0000
  H   H739      1.0  0.67330  0.76248  0.63627  1.0000
  O   O274      1.0  0.66950  0.76389  0.60830  1.0000
  H   H740      1.0  0.69504  0.76689  0.59464  1.0000
  H   H741      1.0  0.70123  0.72977  0.76339  1.0000
  O   O275      1.0  0.71381  0.74721  0.78062  1.0000
  H   H742      1.0  0.71024  0.77282  0.76985  1.0000
  H   H743      1.0  0.68752  0.72292  0.85703  1.0000
  O   O276      1.0  0.71383  0.71947  0.84870  1.0000
  H   H744      1.0  0.71539  0.73022  0.82208  1.0000
  H   H745      1.0  0.68803  0.82096  0.21923  1.0000
  O   O277      1.0  0.70839  0.80566  0.20691  1.0000
  H   H746      1.0  0.73124  0.82004  0.20779  1.0000
  H   H747      1.0  0.66679  0.84624  0.38386  1.0000
  O   O278      1.0  0.66662  0.84156  0.35488  1.0000
  H   H748      1.0  0.67350  0.81510  0.35022  1.0000
  H   H749      1.0  0.64587  0.82567  0.43606  1.0000
  O   O279      1.0  0.66588  0.84851  0.42784  1.0000
  H   H750      1.0  0.65500  0.87275  0.43445  1.0000
  H   H751      1.0  0.69943  0.84308  0.44863  1.0000
  O   O280      1.0  0.72495  0.83919  0.46284  1.0000
  H   H752      1.0  0.74132  0.85946  0.45477  1.0000
  H   H753      1.0  0.73124  0.83139  0.50786  1.0000
  O   O281      1.0  0.73990  0.82812  0.53526  1.0000
  H   H754      1.0  0.76266  0.84217  0.53879  1.0000
  H   H755      1.0  0.65529  0.84364  0.61563  1.0000
  O   O282      1.0  0.67770  0.85553  0.63268  1.0000
  H   H756      1.0  0.70052  0.85704  0.61831  1.0000
  H   H757      1.0  0.67878  0.85637  0.66856  1.0000
  O   O283      1.0  0.67776  0.85847  0.70078  1.0000
  H   H758      1.0  0.68205  0.88461  0.70782  1.0000
  H   H759      1.0  0.69502  0.83296  0.73106  1.0000
  O   O284      1.0  0.70312  0.81965  0.75609  1.0000
  H   H760      1.0  0.72673  0.83026  0.76388  1.0000
  H   H761      1.0  0.81304  0.20390  0.16229  1.0000
  O   O285      1.0  0.80908  0.22398  0.18057  1.0000
  H   H762      1.0  0.81333  0.25028  0.16849  1.0000
  H   H763      1.0  0.75382  0.26127  0.22322  1.0000
  O   O286      1.0  0.75931  0.23264  0.22665  1.0000
  H   H764      1.0  0.78136  0.22613  0.20858  1.0000
  H   H765      1.0  0.75392  0.24229  0.31006  1.0000
  O   O287      1.0  0.76106  0.21953  0.29640  1.0000
  H   H766      1.0  0.76177  0.22482  0.26713  1.0000
  H   H767      1.0  0.75131  0.21171  0.41344  1.0000
  O   O288      1.0  0.74184  0.18896  0.39812  1.0000
  H   H768      1.0  0.75573  0.18511  0.37463  1.0000
  H   H769      1.0  0.77640  0.23301  0.47763  1.0000
  O   O289      1.0  0.78895  0.22495  0.50282  1.0000
  H   H770      1.0  0.80793  0.20675  0.49621  1.0000
  H   H771      1.0  0.77074  0.21784  0.53987  1.0000
  O   O290      1.0  0.75836  0.20819  0.56475  1.0000
  H   H772      1.0  0.77590  0.20997  0.59480  1.0000
  H   H773      1.0  0.77851  0.21082  0.64983  1.0000
  O   O291      1.0  0.79163  0.21385  0.62341  1.0000
  H   H774      1.0  0.80822  0.23762  0.62477  1.0000
  H   H775      1.0  0.73766  0.23025  0.67764  1.0000
  O   O292      1.0  0.75819  0.21401  0.68522  1.0000
  H   H776      1.0  0.76769  0.22615  0.71155  1.0000
  H   H777      1.0  0.76345  0.27134  0.75001  1.0000
  O   O293      1.0  0.77219  0.24445  0.74686  1.0000
  H   H778      1.0  0.79329  0.24277  0.76717  1.0000
  H   H779      1.0  0.80932  0.23425  0.82264  1.0000
  O   O294      1.0  0.81675  0.24729  0.79945  1.0000
  H   H780      1.0  0.82597  0.27414  0.80608  1.0000
  H   H781      1.0  0.79344  0.30176  0.15237  1.0000
  O   O295      1.0  0.81670  0.28907  0.15764  1.0000
  H   H782      1.0  0.83127  0.30389  0.17785  1.0000
  H   H783      1.0  0.72565  0.30436  0.23882  1.0000
  O   O296      1.0  0.74441  0.30020  0.21914  1.0000
  H   H784      1.0  0.76191  0.32733  0.21841  1.0000
  H   H785      1.0  0.73699  0.25592  0.44294  1.0000
  O   O297      1.0  0.76106  0.24447  0.43826  1.0000
  H   H786      1.0  0.77956  0.26700  0.42933  1.0000
  H   H787      1.0  0.73462  0.31204  0.78594  1.0000
  O   O298      1.0  0.75554  0.31130  0.76832  1.0000
  H   H788      1.0  0.75729  0.33628  0.75562  1.0000
  H   H789      1.0  0.77907  0.35332  0.85944  1.0000
  O   O299      1.0  0.78065  0.32236  0.86425  1.0000
  H   H790      1.0  0.80208  0.31291  0.84972  1.0000
  H   H791      1.0  0.79605  0.40954  0.15826  1.0000
  O   O300      1.0  0.79180  0.38039  0.14784  1.0000
  H   H792      1.0  0.81200  0.37242  0.13150  1.0000
  H   H793      1.0  0.76709  0.38081  0.23077  1.0000
  O   O301      1.0  0.77777  0.35806  0.21567  1.0000
  H   H794      1.0  0.78562  0.36520  0.18882  1.0000
  H   H795      1.0  0.74205  0.38236  0.71801  1.0000
  O   O302      1.0  0.76370  0.38079  0.73482  1.0000
  H   H796      1.0  0.76423  0.40528  0.75107  1.0000
  H   H797      1.0  0.78004  0.41371  0.85945  1.0000
  O   O303      1.0  0.78142  0.38647  0.84743  1.0000
  H   H798      1.0  0.79873  0.38562  0.82546  1.0000
  H   H799      1.0  0.80321  0.46730  0.16932  1.0000
  O   O304      1.0  0.80014  0.43928  0.17661  1.0000
  H   H800      1.0  0.81246  0.43555  0.20191  1.0000
  H   H801      1.0  0.69913  0.46553  0.23965  1.0000
  O   O305      1.0  0.72206  0.47232  0.25299  1.0000
  H   H802      1.0  0.72721  0.50925  0.23427  1.0000
  H   H803      1.0  0.73607  0.45263  0.77047  1.0000
  O   O306      1.0  0.76104  0.44175  0.77163  1.0000
  H   H804      1.0  0.77560  0.45813  0.78880  1.0000
  H   H805      1.0  0.78693  0.47216  0.85075  1.0000
  O   O307      1.0  0.78062  0.45014  0.87081  1.0000
  H   H806      1.0  0.78732  0.45698  0.89670  1.0000
  H   H807      1.0  0.81240  0.52940  0.15872  1.0000
  O   O308      1.0  0.81386  0.50579  0.17272  1.0000
  H   H808      1.0  0.82707  0.50898  0.19826  1.0000
  H   H809      1.0  0.70390  0.54808  0.21795  1.0000
  O   O309      1.0  0.72737  0.53306  0.21610  1.0000
  H   H810      1.0  0.75775  0.56044  0.21511  1.0000
  H   H811      1.0  0.74549  0.52933  0.72387  1.0000
  O   O310      1.0  0.76664  0.54426  0.73131  1.0000
  H   H812      1.0  0.75928  0.56831  0.74527  1.0000
  H   H813      1.0  0.78837  0.52573  0.82582  1.0000
  O   O311      1.0  0.79455  0.49720  0.82372  1.0000
  H   H814      1.0  0.81831  0.49508  0.80863  1.0000
  H   H815      1.0  0.80291  0.62292  0.14895  1.0000
  O   O312      1.0  0.80982  0.59372  0.15555  1.0000
  H   H816      1.0  0.83444  0.59244  0.16823  1.0000
  H   H817      1.0  0.76003  0.60934  0.21791  1.0000
  O   O313      1.0  0.77504  0.58311  0.21246  1.0000
  H   H818      1.0  0.78989  0.58610  0.18414  1.0000
  H   H819      1.0  0.73167  0.61609  0.76713  1.0000
  O   O314      1.0  0.75555  0.60315  0.76539  1.0000
  H   H820      1.0  0.77613  0.62209  0.75953  1.0000
  H   H821      1.0  0.77127  0.57559  0.80201  1.0000
  O   O315      1.0  0.78613  0.56639  0.82374  1.0000
  H   H822      1.0  0.78525  0.58906  0.84396  1.0000
  H   H823      1.0  0.76556  0.66251  0.14068  1.0000
  O   O316      1.0  0.79168  0.65835  0.14511  1.0000
  H   H824      1.0  0.80386  0.68259  0.15827  1.0000
  H   H825      1.0  0.73087  0.65769  0.20232  1.0000
  O   O317      1.0  0.74169  0.63913  0.22289  1.0000
  H   H826      1.0  0.74505  0.65107  0.24799  1.0000
  H   H827      1.0  0.74301  0.67339  0.41785  1.0000
  O   O318      1.0  0.76657  0.68625  0.41340  1.0000
  H   H828      1.0  0.76298  0.71171  0.39575  1.0000
  H   H829      1.0  0.78753  0.67358  0.75065  1.0000
  O   O319      1.0  0.80531  0.65297  0.75293  1.0000
  H   H830      1.0  0.81879  0.65575  0.78280  1.0000
  H   H831      1.0  0.76262  0.63710  0.86856  1.0000
  O   O320      1.0  0.78619  0.62239  0.86121  1.0000
  H   H832      1.0  0.80343  0.63885  0.84697  1.0000
  H   H833      1.0  0.82946  0.73083  0.15360  1.0000
  O   O321      1.0  0.81952  0.71389  0.17271  1.0000
  H   H834      1.0  0.82259  0.72529  0.20112  1.0000
  H   H835      1.0  0.80628  0.74698  0.25461  1.0000
  O   O322      1.0  0.82810  0.73898  0.23578  1.0000
  H   H836      1.0  0.84910  0.73086  0.25098  1.0000
  H   H837      1.0  0.75182  0.75049  0.26660  1.0000
  O   O323      1.0  0.77789  0.75559  0.27817  1.0000
  H   H838      1.0  0.77821  0.75147  0.30567  1.0000
  H   H839      1.0  0.73269  0.74386  0.36479  1.0000
  O   O324      1.0  0.75552  0.74431  0.37987  1.0000
  H   H840      1.0  0.75221  0.76094  0.40456  1.0000
  H   H841      1.0  0.73474  0.75717  0.45863  1.0000
  O   O325      1.0  0.74712  0.77494  0.44148  1.0000
  H   H842      1.0  0.73962  0.80116  0.44934  1.0000
  H   H843      1.0  0.73237  0.75040  0.56001  1.0000
  O   O326      1.0  0.73060  0.77212  0.57716  1.0000
  H   H844      1.0  0.73345  0.79574  0.56002  1.0000
  H   H845      1.0  0.76571  0.76775  0.61540  1.0000
  O   O327      1.0  0.78731  0.76208  0.63163  1.0000
  H   H846      1.0  0.80539  0.74582  0.61591  1.0000
  H   H847      1.0  0.75475  0.74304  0.70193  1.0000
  O   O328      1.0  0.77507  0.76107  0.70030  1.0000
  H   H848      1.0  0.78286  0.76239  0.67026  1.0000
  H   H849      1.0  0.79342  0.76015  0.73059  1.0000
  O   O329      1.0  0.80835  0.75841  0.75916  1.0000
  H   H850      1.0  0.82595  0.77850  0.76315  1.0000
  H   H851      1.0  0.77431  0.72547  0.82911  1.0000
  O   O330      1.0  0.79713  0.72232  0.81480  1.0000
  H   H852      1.0  0.80116  0.74048  0.78785  1.0000
  H   H853      1.0  0.86416  0.34892  0.21121  1.0000
  O   O331      1.0  0.85586  0.31933  0.20972  1.0000
  H   H854      1.0  0.87826  0.30420  0.20811  1.0000
  H   H855      1.0  0.81151  0.28670  0.27571  1.0000
  O   O332      1.0  0.83319  0.30273  0.27483  1.0000
  H   H856      1.0  0.84022  0.30976  0.24713  1.0000
  H   H857      1.0  0.84398  0.33955  0.35993  1.0000
  O   O333      1.0  0.84738  0.33325  0.39216  1.0000
  H   H858      1.0  0.87153  0.32219  0.39658  1.0000
  H   H859      1.0  0.79645  0.31220  0.44929  1.0000
  O   O334      1.0  0.79999  0.29735  0.42611  1.0000
  H   H860      1.0  0.81994  0.31050  0.40885  1.0000
  H   H861      1.0  0.82095  0.27629  0.54160  1.0000
  O   O335      1.0  0.83610  0.29158  0.55866  1.0000
  H   H862      1.0  0.83382  0.28245  0.58653  1.0000
  H   H863      1.0  0.79846  0.28877  0.62743  1.0000
  O   O336      1.0  0.82215  0.27523  0.62671  1.0000
  H   H864      1.0  0.83547  0.28608  0.65285  1.0000
  H   H865      1.0  0.84358  0.28837  0.70865  1.0000
  O   O337      1.0  0.84436  0.30298  0.68515  1.0000
  H   H866      1.0  0.83435  0.33085  0.68947  1.0000
  H   H867      1.0  0.83587  0.33815  0.80482  1.0000
  O   O338      1.0  0.83923  0.31107  0.81810  1.0000
  H   H868      1.0  0.86388  0.30982  0.82895  1.0000
  H   H869      1.0  0.86174  0.40728  0.22384  1.0000
  O   O339      1.0  0.87645  0.38326  0.21405  1.0000
  H   H870      1.0  0.90188  0.38907  0.20801  1.0000
  H   H871      1.0  0.83779  0.32730  0.30412  1.0000
  O   O340      1.0  0.84163  0.34718  0.32653  1.0000
  H   H872      1.0  0.83491  0.37312  0.31924  1.0000
  H   H873      1.0  0.83835  0.40934  0.43958  1.0000
  O   O341      1.0  0.82754  0.38361  0.43820  1.0000
  H   H874      1.0  0.83843  0.36530  0.41855  1.0000
  H   H875      1.0  0.84876  0.37266  0.54758  1.0000
  O   O342      1.0  0.83104  0.35989  0.56373  1.0000
  H   H876      1.0  0.83292  0.33083  0.55990  1.0000
  H   H877      1.0  0.79629  0.37172  0.70950  1.0000
  O   O343      1.0  0.81964  0.36661  0.69430  1.0000
  H   H878      1.0  0.83258  0.39049  0.68946  1.0000
  H   H879      1.0  0.80944  0.36663  0.76984  1.0000
  O   O344      1.0  0.82752  0.37217  0.78973  1.0000
  H   H880      1.0  0.84252  0.39764  0.78019  1.0000
  H   H881      1.0  0.83383  0.42948  0.26423  1.0000
  O   O345      1.0  0.84172  0.43635  0.23779  1.0000
  H   H882      1.0  0.84835  0.46512  0.23641  1.0000
  H   H883      1.0  0.80780  0.43165  0.32238  1.0000
  O   O346      1.0  0.83055  0.41961  0.31187  1.0000
  H   H884      1.0  0.85126  0.43112  0.32551  1.0000
  H   H885      1.0  0.82619  0.45408  0.47898  1.0000
  O   O347      1.0  0.83402  0.45414  0.45227  1.0000
  H   H886      1.0  0.83976  0.48113  0.44618  1.0000
  H   H887      1.0  0.78964  0.46898  0.54814  1.0000
  O   O348      1.0  0.80828  0.46401  0.56789  1.0000
  H   H888      1.0  0.81830  0.48927  0.57479  1.0000
  H   H889      1.0  0.81869  0.45414  0.68690  1.0000
  O   O349      1.0  0.84164  0.43901  0.68825  1.0000
  H   H890      1.0  0.86123  0.45443  0.67725  1.0000
  H   H891      1.0  0.85259  0.42959  0.73720  1.0000
  O   O350      1.0  0.85559  0.42786  0.76523  1.0000
  H   H892      1.0  0.85695  0.45541  0.77590  1.0000
  H   H893      1.0  0.83806  0.51804  0.26100  1.0000
  O   O351      1.0  0.84991  0.50559  0.23479  1.0000
  H   H894      1.0  0.87087  0.52141  0.22754  1.0000
  H   H895      1.0  0.80725  0.51431  0.30650  1.0000
  O   O352      1.0  0.82490  0.53059  0.29330  1.0000
  H   H896      1.0  0.82188  0.55788  0.30458  1.0000
  H   H897      1.0  0.83945  0.55096  0.44569  1.0000
  O   O353      1.0  0.85136  0.52546  0.44321  1.0000
  H   H898      1.0  0.87624  0.52908  0.43360  1.0000
  H   H899      1.0  0.85468  0.53481  0.55408  1.0000
  O   O354      1.0  0.83344  0.53354  0.57103  1.0000
  H   H900      1.0  0.82932  0.55927  0.58176  1.0000
  H   H901      1.0  0.80228  0.52933  0.72777  1.0000
  O   O355      1.0  0.83023  0.52243  0.72479  1.0000
  H   H902      1.0  0.84126  0.54429  0.71164  1.0000
  H   H903      1.0  0.84379  0.50786  0.75509  1.0000
  O   O356      1.0  0.85306  0.49442  0.78176  1.0000
  H   H904      1.0  0.86935  0.51250  0.79434  1.0000
  H   H905      1.0  0.83130  0.57881  0.22739  1.0000
  O   O357      1.0  0.85553  0.58348  0.21599  1.0000
  H   H906      1.0  0.86158  0.61015  0.22403  1.0000
  H   H907      1.0  0.79112  0.60483  0.31655  1.0000
  O   O358      1.0  0.81369  0.59156  0.32384  1.0000
  H   H908      1.0  0.83081  0.60973  0.33763  1.0000
  H   H909      1.0  0.80740  0.59445  0.47353  1.0000
  O   O359      1.0  0.81659  0.58911  0.44766  1.0000
  H   H910      1.0  0.81975  0.61617  0.43459  1.0000
  H   H911      1.0  0.80392  0.61479  0.56923  1.0000
  O   O360      1.0  0.81389  0.60298  0.59267  1.0000
  H   H912      1.0  0.82198  0.62503  0.61025  1.0000
  H   H913      1.0  0.80586  0.59190  0.69925  1.0000
  O   O361      1.0  0.83050  0.58895  0.68835  1.0000
  H   H914      1.0  0.84328  0.61300  0.69252  1.0000
  H   H915      1.0  0.82887  0.56972  0.80769  1.0000
  O   O362      1.0  0.85553  0.57229  0.79969  1.0000
  H   H916      1.0  0.86729  0.58705  0.81965  1.0000
  H   H917      1.0  0.85520  0.66441  0.26041  1.0000
  O   O363      1.0  0.86105  0.65290  0.23455  1.0000
  H   H918      1.0  0.85209  0.66968  0.21457  1.0000
  H   H919      1.0  0.81797  0.68912  0.30058  1.0000
  O   O364      1.0  0.84436  0.68332  0.29942  1.0000
  H   H920      1.0  0.84968  0.66764  0.32274  1.0000
  H   H921      1.0  0.83997  0.64619  0.38486  1.0000
  O   O365      1.0  0.85295  0.63895  0.35830  1.0000
  H   H922      1.0  0.87861  0.63224  0.36273  1.0000
  H   H923      1.0  0.79328  0.66912  0.41578  1.0000
  O   O366      1.0  0.82249  0.65263  0.41968  1.0000
  H   H924      1.0  0.83722  0.66809  0.43690  1.0000
  H   H925      1.0  0.82119  0.71426  0.56618  1.0000
  O   O367      1.0  0.82771  0.71941  0.59271  1.0000
  H   H926      1.0  0.82881  0.69454  0.60749  1.0000
  H   H927      1.0  0.79551  0.66456  0.63825  1.0000
  O   O368      1.0  0.82206  0.66108  0.63269  1.0000
  H   H928      1.0  0.83430  0.66374  0.66052  1.0000
  H   H929      1.0  0.82749  0.66018  0.72269  1.0000
  O   O369      1.0  0.84460  0.66645  0.69798  1.0000
  H   H930      1.0  0.86512  0.68257  0.70485  1.0000
  H   H931      1.0  0.81299  0.69447  0.81780  1.0000
  O   O370      1.0  0.82812  0.66408  0.81511  1.0000
  H   H932      1.0  0.85450  0.66441  0.81975  1.0000
